
OS:Version,
  {63d88810-5d01-48de-98e7-2fe210090700}, !- Handle
  3.7.0;                                  !- Version Identifier

OS:ThermalZone,
  {7ab1686e-9e07-417d-abd7-fa4196197253}, !- Handle
  conditioned space,                      !- Name
  ,                                       !- Multiplier
  ,                                       !- Ceiling Height {m}
  ,                                       !- Volume {m3}
  ,                                       !- Floor Area {m2}
  ,                                       !- Zone Inside Convection Algorithm
  ,                                       !- Zone Outside Convection Algorithm
  ,                                       !- Zone Conditioning Equipment List Name
  {988e535f-f54a-4a29-bbd7-d12797cdc5f2}, !- Zone Air Inlet Port List
  {4b6c436a-0d1b-4af7-b558-d9e522cf6deb}, !- Zone Air Exhaust Port List
  {d66b8981-d3f3-45f7-b23a-dad03363b6bd}, !- Zone Air Node Name
  {8a64985c-5ff2-4f10-809c-87bd2c04f8cc}, !- Zone Return Air Port List
  ,                                       !- Primary Daylighting Control Name
  ,                                       !- Fraction of Zone Controlled by Primary Daylighting Control
  ,                                       !- Secondary Daylighting Control Name
  ,                                       !- Fraction of Zone Controlled by Secondary Daylighting Control
  ,                                       !- Illuminance Map Name
  ,                                       !- Group Rendering Name
  ,                                       !- Thermostat Name
  No;                                     !- Use Ideal Air Loads

OS:Node,
  {db688eda-d4cb-44a8-adeb-0856d0db7c7f}, !- Handle
  Node 1,                                 !- Name
  {d66b8981-d3f3-45f7-b23a-dad03363b6bd}, !- Inlet Port
  ;                                       !- Outlet Port

OS:Connection,
  {d66b8981-d3f3-45f7-b23a-dad03363b6bd}, !- Handle
  {7ab1686e-9e07-417d-abd7-fa4196197253}, !- Source Object
  11,                                     !- Outlet Port
  {db688eda-d4cb-44a8-adeb-0856d0db7c7f}, !- Target Object
  2;                                      !- Inlet Port

OS:PortList,
  {988e535f-f54a-4a29-bbd7-d12797cdc5f2}, !- Handle
  {7ab1686e-9e07-417d-abd7-fa4196197253}; !- HVAC Component

OS:PortList,
  {4b6c436a-0d1b-4af7-b558-d9e522cf6deb}, !- Handle
  {7ab1686e-9e07-417d-abd7-fa4196197253}; !- HVAC Component

OS:PortList,
  {8a64985c-5ff2-4f10-809c-87bd2c04f8cc}, !- Handle
  {7ab1686e-9e07-417d-abd7-fa4196197253}; !- HVAC Component

OS:Sizing:Zone,
  {0d240607-1651-467c-9b5c-f26275217f7e}, !- Handle
  {7ab1686e-9e07-417d-abd7-fa4196197253}, !- Zone or ZoneList Name
  SupplyAirTemperature,                   !- Zone Cooling Design Supply Air Temperature Input Method
  14,                                     !- Zone Cooling Design Supply Air Temperature {C}
  11.11,                                  !- Zone Cooling Design Supply Air Temperature Difference {deltaC}
  SupplyAirTemperature,                   !- Zone Heating Design Supply Air Temperature Input Method
  40,                                     !- Zone Heating Design Supply Air Temperature {C}
  11.11,                                  !- Zone Heating Design Supply Air Temperature Difference {deltaC}
  0.0085,                                 !- Zone Cooling Design Supply Air Humidity Ratio {kg-H2O/kg-air}
  0.008,                                  !- Zone Heating Design Supply Air Humidity Ratio {kg-H2O/kg-air}
  ,                                       !- Zone Heating Sizing Factor
  ,                                       !- Zone Cooling Sizing Factor
  DesignDay,                              !- Cooling Design Air Flow Method
  ,                                       !- Cooling Design Air Flow Rate {m3/s}
  ,                                       !- Cooling Minimum Air Flow per Zone Floor Area {m3/s-m2}
  ,                                       !- Cooling Minimum Air Flow {m3/s}
  ,                                       !- Cooling Minimum Air Flow Fraction
  DesignDay,                              !- Heating Design Air Flow Method
  ,                                       !- Heating Design Air Flow Rate {m3/s}
  ,                                       !- Heating Maximum Air Flow per Zone Floor Area {m3/s-m2}
  ,                                       !- Heating Maximum Air Flow {m3/s}
  ,                                       !- Heating Maximum Air Flow Fraction
  No,                                     !- Account for Dedicated Outdoor Air System
  NeutralSupplyAir,                       !- Dedicated Outdoor Air System Control Strategy
  autosize,                               !- Dedicated Outdoor Air Low Setpoint Temperature for Design {C}
  autosize,                               !- Dedicated Outdoor Air High Setpoint Temperature for Design {C}
  Sensible Load Only No Latent Load,      !- Zone Load Sizing Method
  HumidityRatioDifference,                !- Zone Latent Cooling Design Supply Air Humidity Ratio Input Method
  ,                                       !- Zone Dehumidification Design Supply Air Humidity Ratio {kgWater/kgDryAir}
  0.005,                                  !- Zone Cooling Design Supply Air Humidity Ratio Difference {kgWater/kgDryAir}
  HumidityRatioDifference,                !- Zone Latent Heating Design Supply Air Humidity Ratio Input Method
  ,                                       !- Zone Humidification Design Supply Air Humidity Ratio {kgWater/kgDryAir}
  0.005;                                  !- Zone Humidification Design Supply Air Humidity Ratio Difference {kgWater/kgDryAir}

OS:ZoneHVAC:EquipmentList,
  {8c66ceb4-8821-4a8e-8f72-f8d1c7eb8db6}, !- Handle
  Zone HVAC Equipment List 1,             !- Name
  {7ab1686e-9e07-417d-abd7-fa4196197253}; !- Thermal Zone

OS:Space,
  {4afa5a1b-cebf-4744-9564-30742633acce}, !- Handle
  conditioned space 1,                    !- Name
  {62aa391d-7287-479e-8a09-0dc2061a8f37}, !- Space Type Name
  ,                                       !- Default Construction Set Name
  ,                                       !- Default Schedule Set Name
  ,                                       !- Direction of Relative North {deg}
  ,                                       !- X Origin {m}
  ,                                       !- Y Origin {m}
  ,                                       !- Z Origin {m}
  ,                                       !- Building Story Name
  {7ab1686e-9e07-417d-abd7-fa4196197253}; !- Thermal Zone Name

OS:Surface,
  {d07cf5fe-498a-4a43-89fb-961aa333d5f6}, !- Handle
  Surface 1,                              !- Name
  Floor,                                  !- Surface Type
  ,                                       !- Construction Name
  {4afa5a1b-cebf-4744-9564-30742633acce}, !- Space Name
  Adiabatic,                              !- Outside Boundary Condition
  ,                                       !- Outside Boundary Condition Object
  NoSun,                                  !- Sun Exposure
  NoWind,                                 !- Wind Exposure
  ,                                       !- View Factor to Ground
  ,                                       !- Number of Vertices
  0, -13.7944686069043, 0,                !- X,Y,Z Vertex 1 {m}
  0, 0, 0,                                !- X,Y,Z Vertex 2 {m}
  7.66420675799603, 0, 0,                 !- X,Y,Z Vertex 3 {m}
  7.66420675799603, -13.7944686069043, 0; !- X,Y,Z Vertex 4 {m}

OS:Surface,
  {5813e179-c324-466e-b88a-d0ef8458d537}, !- Handle
  Surface 2,                              !- Name
  Wall,                                   !- Surface Type
  ,                                       !- Construction Name
  {4afa5a1b-cebf-4744-9564-30742633acce}, !- Space Name
  Adiabatic,                              !- Outside Boundary Condition
  ,                                       !- Outside Boundary Condition Object
  NoSun,                                  !- Sun Exposure
  NoWind,                                 !- Wind Exposure
  ,                                       !- View Factor to Ground
  ,                                       !- Number of Vertices
  0, -13.7944686069043, 2.4384,           !- X,Y,Z Vertex 1 {m}
  0, 0, 2.4384,                           !- X,Y,Z Vertex 2 {m}
  0, 0, 0,                                !- X,Y,Z Vertex 3 {m}
  0, -13.7944686069043, 0;                !- X,Y,Z Vertex 4 {m}

OS:Surface,
  {99529e9f-bce4-466f-b037-78db02ca511d}, !- Handle
  Surface 3,                              !- Name
  Wall,                                   !- Surface Type
  ,                                       !- Construction Name
  {4afa5a1b-cebf-4744-9564-30742633acce}, !- Space Name
  Outdoors,                               !- Outside Boundary Condition
  ,                                       !- Outside Boundary Condition Object
  SunExposed,                             !- Sun Exposure
  WindExposed,                            !- Wind Exposure
  ,                                       !- View Factor to Ground
  ,                                       !- Number of Vertices
  0, 0, 2.4384,                           !- X,Y,Z Vertex 1 {m}
  7.66420675799603, 0, 2.4384,            !- X,Y,Z Vertex 2 {m}
  7.66420675799603, 0, 0,                 !- X,Y,Z Vertex 3 {m}
  0, 0, 0;                                !- X,Y,Z Vertex 4 {m}

OS:Surface,
  {e4578039-7ef4-44d0-9814-fb6e6af38856}, !- Handle
  Surface 4,                              !- Name
  Wall,                                   !- Surface Type
  ,                                       !- Construction Name
  {4afa5a1b-cebf-4744-9564-30742633acce}, !- Space Name
  Outdoors,                               !- Outside Boundary Condition
  ,                                       !- Outside Boundary Condition Object
  SunExposed,                             !- Sun Exposure
  WindExposed,                            !- Wind Exposure
  ,                                       !- View Factor to Ground
  ,                                       !- Number of Vertices
  7.66420675799603, 0, 2.4384,            !- X,Y,Z Vertex 1 {m}
  7.66420675799603, -13.7944686069043, 2.4384, !- X,Y,Z Vertex 2 {m}
  7.66420675799603, -13.7944686069043, 0, !- X,Y,Z Vertex 3 {m}
  7.66420675799603, 0, 0;                 !- X,Y,Z Vertex 4 {m}

OS:Surface,
  {fc7457bd-0c93-46f7-9cf6-8e1a5533093d}, !- Handle
  Surface 5,                              !- Name
  Wall,                                   !- Surface Type
  ,                                       !- Construction Name
  {4afa5a1b-cebf-4744-9564-30742633acce}, !- Space Name
  Adiabatic,                              !- Outside Boundary Condition
  ,                                       !- Outside Boundary Condition Object
  NoSun,                                  !- Sun Exposure
  NoWind,                                 !- Wind Exposure
  ,                                       !- View Factor to Ground
  ,                                       !- Number of Vertices
  7.66420675799603, -13.7944686069043, 2.4384, !- X,Y,Z Vertex 1 {m}
  0, -13.7944686069043, 2.4384,           !- X,Y,Z Vertex 2 {m}
  0, -13.7944686069043, 0,                !- X,Y,Z Vertex 3 {m}
  7.66420675799603, -13.7944686069043, 0; !- X,Y,Z Vertex 4 {m}

OS:Surface,
  {7fed933b-4c2c-4a49-90a5-9c93ccfff85c}, !- Handle
  Surface 6,                              !- Name
  RoofCeiling,                            !- Surface Type
  ,                                       !- Construction Name
  {4afa5a1b-cebf-4744-9564-30742633acce}, !- Space Name
  Outdoors,                               !- Outside Boundary Condition
  ,                                       !- Outside Boundary Condition Object
  SunExposed,                             !- Sun Exposure
  WindExposed,                            !- Wind Exposure
  ,                                       !- View Factor to Ground
  ,                                       !- Number of Vertices
  7.66420675799603, -13.7944686069043, 2.4384, !- X,Y,Z Vertex 1 {m}
  7.66420675799603, 0, 2.4384,            !- X,Y,Z Vertex 2 {m}
  0, 0, 2.4384,                           !- X,Y,Z Vertex 3 {m}
  0, -13.7944686069043, 2.4384;           !- X,Y,Z Vertex 4 {m}

OS:AdditionalProperties,
  {12c98f07-dd6d-4a03-ad77-23b90f0c03a5}, !- Handle
  {4afa5a1b-cebf-4744-9564-30742633acce}, !- Object Name
  Index,                                  !- Feature Name 1
  Integer,                                !- Feature Data Type 1
  1;                                      !- Feature Value 1

OS:AdditionalProperties,
  {22f037d6-4d37-4808-9099-b9ee989f21b9}, !- Handle
  {7fed933b-4c2c-4a49-90a5-9c93ccfff85c}, !- Object Name
  Index,                                  !- Feature Name 1
  Integer,                                !- Feature Data Type 1
  7;                                      !- Feature Value 1

OS:AdditionalProperties,
  {b491c16e-b36c-45ec-8ce5-671aa3c193f6}, !- Handle
  {d07cf5fe-498a-4a43-89fb-961aa333d5f6}, !- Object Name
  Index,                                  !- Feature Name 1
  Integer,                                !- Feature Data Type 1
  2;                                      !- Feature Value 1

OS:AdditionalProperties,
  {b79e8b80-d061-4b13-9f9d-ff77d5e0fa31}, !- Handle
  {5813e179-c324-466e-b88a-d0ef8458d537}, !- Object Name
  Index,                                  !- Feature Name 1
  Integer,                                !- Feature Data Type 1
  6;                                      !- Feature Value 1

OS:AdditionalProperties,
  {a576db5b-0e96-47e0-a033-601940ee877f}, !- Handle
  {fc7457bd-0c93-46f7-9cf6-8e1a5533093d}, !- Object Name
  Index,                                  !- Feature Name 1
  Integer,                                !- Feature Data Type 1
  5;                                      !- Feature Value 1

OS:AdditionalProperties,
  {175ce2e4-332a-40f3-bb62-d7733b71b396}, !- Handle
  {99529e9f-bce4-466f-b037-78db02ca511d}, !- Object Name
  Index,                                  !- Feature Name 1
  Integer,                                !- Feature Data Type 1
  3;                                      !- Feature Value 1

OS:AdditionalProperties,
  {f81d3637-4c8d-41d3-b4b5-ad3bffcca922}, !- Handle
  {e4578039-7ef4-44d0-9814-fb6e6af38856}, !- Object Name
  Index,                                  !- Feature Name 1
  Integer,                                !- Feature Data Type 1
  4;                                      !- Feature Value 1

OS:SpaceType,
  {62aa391d-7287-479e-8a09-0dc2061a8f37}, !- Handle
  Space Type 1,                           !- Name
  ,                                       !- Default Construction Set Name
  ,                                       !- Default Schedule Set Name
  ,                                       !- Group Rendering Name
  ,                                       !- Design Specification Outdoor Air Object Name
  ,                                       !- Standards Template
  ,                                       !- Standards Building Type
  conditioned space;                      !- Standards Space Type

OS:SubSurface,
  {c1d4e7af-4d50-48ef-a1de-ea331a9818d6}, !- Handle
  Surface 5 - Door,                       !- Name
  Door,                                   !- Sub Surface Type
  ,                                       !- Construction Name
  {fc7457bd-0c93-46f7-9cf6-8e1a5533093d}, !- Surface Name
  ,                                       !- Outside Boundary Condition Object
  ,                                       !- View Factor to Ground
  ,                                       !- Frame and Divider Name
  ,                                       !- Multiplier
  ,                                       !- Number of Vertices
  0.1524, -13.794467712, 2.1336,          !- X,Y,Z Vertex 1 {m}
  0.1524, -13.794467712, 0,               !- X,Y,Z Vertex 2 {m}
  1.02325714285714, -13.794467712, 0,     !- X,Y,Z Vertex 3 {m}
  1.02325714285714, -13.794467712, 2.1336; !- X,Y,Z Vertex 4 {m}

OS:AdditionalProperties,
  {b8687301-14f4-409b-bc7a-b69e7350c618}, !- Handle
  {c1d4e7af-4d50-48ef-a1de-ea331a9818d6}, !- Object Name
  Index,                                  !- Feature Name 1
  Integer,                                !- Feature Data Type 1
  8;                                      !- Feature Value 1

OS:SubSurface,
  {a9b58fb8-ecdd-4643-8703-b64cab69a1a4}, !- Handle
  Surface 3 - Window 1,                   !- Name
  FixedWindow,                            !- Sub Surface Type
  ,                                       !- Construction Name
  {99529e9f-bce4-466f-b037-78db02ca511d}, !- Surface Name
  ,                                       !- Outside Boundary Condition Object
  ,                                       !- View Factor to Ground
  ,                                       !- Frame and Divider Name
  ,                                       !- Multiplier
  ,                                       !- Number of Vertices
  5.93423877787937, 0, 2.1336,            !- X,Y,Z Vertex 1 {m}
  5.93423877787937, 0, 1.07481589571081,  !- X,Y,Z Vertex 2 {m}
  5.139952128, 0, 1.07481589571081,       !- X,Y,Z Vertex 3 {m}
  5.139952128, 0, 2.1336;                 !- X,Y,Z Vertex 4 {m}

OS:AdditionalProperties,
  {1a2ffa3a-31ed-4d6e-9ef0-37337d81d661}, !- Handle
  {a9b58fb8-ecdd-4643-8703-b64cab69a1a4}, !- Object Name
  Index,                                  !- Feature Name 1
  Integer,                                !- Feature Data Type 1
  9;                                      !- Feature Value 1

OS:SubSurface,
  {528c2225-7704-4a32-b1c3-b6b001493e59}, !- Handle
  Surface 3 - Window 2,                   !- Name
  FixedWindow,                            !- Sub Surface Type
  ,                                       !- Construction Name
  {99529e9f-bce4-466f-b037-78db02ca511d}, !- Surface Name
  ,                                       !- Outside Boundary Condition Object
  ,                                       !- View Factor to Ground
  ,                                       !- Frame and Divider Name
  ,                                       !- Multiplier
  ,                                       !- Number of Vertices
  5.078992128, 0, 2.1336,                 !- X,Y,Z Vertex 1 {m}
  5.078992128, 0, 1.07481589571081,       !- X,Y,Z Vertex 2 {m}
  4.28470547812063, 0, 1.07481589571081,  !- X,Y,Z Vertex 3 {m}
  4.28470547812063, 0, 2.1336;            !- X,Y,Z Vertex 4 {m}

OS:AdditionalProperties,
  {7f95e5f0-a088-4906-a361-263b2463a268}, !- Handle
  {528c2225-7704-4a32-b1c3-b6b001493e59}, !- Object Name
  Index,                                  !- Feature Name 1
  Integer,                                !- Feature Data Type 1
  10;                                     !- Feature Value 1

OS:SubSurface,
  {de43b1dc-a3e8-4c6f-b3d4-2016d9d3d33e}, !- Handle
  Surface 3 - Window 3,                   !- Name
  FixedWindow,                            !- Sub Surface Type
  ,                                       !- Construction Name
  {99529e9f-bce4-466f-b037-78db02ca511d}, !- Surface Name
  ,                                       !- Outside Boundary Condition Object
  ,                                       !- View Factor to Ground
  ,                                       !- Frame and Divider Name
  ,                                       !- Multiplier
  ,                                       !- Number of Vertices
  3.37950271387937, 0, 2.1336,            !- X,Y,Z Vertex 1 {m}
  3.37950271387937, 0, 1.07481589571081,  !- X,Y,Z Vertex 2 {m}
  2.585216064, 0, 1.07481589571081,       !- X,Y,Z Vertex 3 {m}
  2.585216064, 0, 2.1336;                 !- X,Y,Z Vertex 4 {m}

OS:AdditionalProperties,
  {8aebb186-68d5-44cf-9fb4-2853aa861fc6}, !- Handle
  {de43b1dc-a3e8-4c6f-b3d4-2016d9d3d33e}, !- Object Name
  Index,                                  !- Feature Name 1
  Integer,                                !- Feature Data Type 1
  11;                                     !- Feature Value 1

OS:SubSurface,
  {2a1ea199-28d9-4c63-a4a0-ae9d35fe7a35}, !- Handle
  Surface 3 - Window 4,                   !- Name
  FixedWindow,                            !- Sub Surface Type
  ,                                       !- Construction Name
  {99529e9f-bce4-466f-b037-78db02ca511d}, !- Surface Name
  ,                                       !- Outside Boundary Condition Object
  ,                                       !- View Factor to Ground
  ,                                       !- Frame and Divider Name
  ,                                       !- Multiplier
  ,                                       !- Number of Vertices
  2.524256064, 0, 2.1336,                 !- X,Y,Z Vertex 1 {m}
  2.524256064, 0, 1.07481589571081,       !- X,Y,Z Vertex 2 {m}
  1.72996941412063, 0, 1.07481589571081,  !- X,Y,Z Vertex 3 {m}
  1.72996941412063, 0, 2.1336;            !- X,Y,Z Vertex 4 {m}

OS:AdditionalProperties,
  {96fb9d02-fc67-4226-bd92-c7e59744c612}, !- Handle
  {2a1ea199-28d9-4c63-a4a0-ae9d35fe7a35}, !- Object Name
  Index,                                  !- Feature Name 1
  Integer,                                !- Feature Data Type 1
  12;                                     !- Feature Value 1

OS:SubSurface,
  {68336e2e-566a-46a1-9735-3cd381e99439}, !- Handle
  Surface 4 - Window 1,                   !- Name
  FixedWindow,                            !- Sub Surface Type
  ,                                       !- Construction Name
  {e4578039-7ef4-44d0-9814-fb6e6af38856}, !- Surface Name
  ,                                       !- Outside Boundary Condition Object
  ,                                       !- View Factor to Ground
  ,                                       !- Frame and Divider Name
  ,                                       !- Multiplier
  ,                                       !- Number of Vertices
  7.664208192, -11.2463934127191, 2.1336, !- X,Y,Z Vertex 1 {m}
  7.664208192, -11.2463934127191, 0.973806515917378, !- X,Y,Z Vertex 2 {m}
  7.664208192, -10.376330784, 0.973806515917378, !- X,Y,Z Vertex 3 {m}
  7.664208192, -10.376330784, 2.1336;     !- X,Y,Z Vertex 4 {m}

OS:AdditionalProperties,
  {f324430c-c3e7-4e1f-90a4-9e6129935dfb}, !- Handle
  {68336e2e-566a-46a1-9735-3cd381e99439}, !- Object Name
  Index,                                  !- Feature Name 1
  Integer,                                !- Feature Data Type 1
  13;                                     !- Feature Value 1

OS:SubSurface,
  {a3529cc0-6fd7-4995-b864-e979e8e0b930}, !- Handle
  Surface 4 - Window 2,                   !- Name
  FixedWindow,                            !- Sub Surface Type
  ,                                       !- Construction Name
  {e4578039-7ef4-44d0-9814-fb6e6af38856}, !- Surface Name
  ,                                       !- Outside Boundary Condition Object
  ,                                       !- View Factor to Ground
  ,                                       !- Frame and Divider Name
  ,                                       !- Multiplier
  ,                                       !- Number of Vertices
  7.664208192, -10.315370784, 2.1336,     !- X,Y,Z Vertex 1 {m}
  7.664208192, -10.315370784, 0.973806515917378, !- X,Y,Z Vertex 2 {m}
  7.664208192, -9.44530815528086, 0.973806515917378, !- X,Y,Z Vertex 3 {m}
  7.664208192, -9.44530815528086, 2.1336; !- X,Y,Z Vertex 4 {m}

OS:AdditionalProperties,
  {5ac09477-8333-435b-b1a7-5619ab01842e}, !- Handle
  {a3529cc0-6fd7-4995-b864-e979e8e0b930}, !- Object Name
  Index,                                  !- Feature Name 1
  Integer,                                !- Feature Data Type 1
  14;                                     !- Feature Value 1

OS:SubSurface,
  {074a97b6-3aa4-48f4-b9cb-2ffc2cf6b3c4}, !- Handle
  Surface 4 - Window 3,                   !- Name
  FixedWindow,                            !- Sub Surface Type
  ,                                       !- Construction Name
  {e4578039-7ef4-44d0-9814-fb6e6af38856}, !- Surface Name
  ,                                       !- Outside Boundary Condition Object
  ,                                       !- View Factor to Ground
  ,                                       !- Frame and Divider Name
  ,                                       !- Multiplier
  ,                                       !- Number of Vertices
  7.664208192, -7.79777648471915, 2.1336, !- X,Y,Z Vertex 1 {m}
  7.664208192, -7.79777648471915, 0.973806515917378, !- X,Y,Z Vertex 2 {m}
  7.664208192, -6.927713856, 0.973806515917378, !- X,Y,Z Vertex 3 {m}
  7.664208192, -6.927713856, 2.1336;      !- X,Y,Z Vertex 4 {m}

OS:AdditionalProperties,
  {480efbb7-3f87-49c9-a6ad-420b8c94f2bd}, !- Handle
  {074a97b6-3aa4-48f4-b9cb-2ffc2cf6b3c4}, !- Object Name
  Index,                                  !- Feature Name 1
  Integer,                                !- Feature Data Type 1
  15;                                     !- Feature Value 1

OS:SubSurface,
  {99cedbe9-e134-4f86-9190-65cd3f0b55b5}, !- Handle
  Surface 4 - Window 4,                   !- Name
  FixedWindow,                            !- Sub Surface Type
  ,                                       !- Construction Name
  {e4578039-7ef4-44d0-9814-fb6e6af38856}, !- Surface Name
  ,                                       !- Outside Boundary Condition Object
  ,                                       !- View Factor to Ground
  ,                                       !- Frame and Divider Name
  ,                                       !- Multiplier
  ,                                       !- Number of Vertices
  7.664208192, -6.866753856, 2.1336,      !- X,Y,Z Vertex 1 {m}
  7.664208192, -6.866753856, 0.973806515917378, !- X,Y,Z Vertex 2 {m}
  7.664208192, -5.99669122728085, 0.973806515917378, !- X,Y,Z Vertex 3 {m}
  7.664208192, -5.99669122728085, 2.1336; !- X,Y,Z Vertex 4 {m}

OS:AdditionalProperties,
  {b6a35435-5124-4acb-a279-d721c534eed5}, !- Handle
  {99cedbe9-e134-4f86-9190-65cd3f0b55b5}, !- Object Name
  Index,                                  !- Feature Name 1
  Integer,                                !- Feature Data Type 1
  16;                                     !- Feature Value 1

OS:SubSurface,
  {46f0318e-3033-4b48-b270-dc60ad7cd68f}, !- Handle
  Surface 4 - Window 5,                   !- Name
  FixedWindow,                            !- Sub Surface Type
  ,                                       !- Construction Name
  {e4578039-7ef4-44d0-9814-fb6e6af38856}, !- Surface Name
  ,                                       !- Outside Boundary Condition Object
  ,                                       !- View Factor to Ground
  ,                                       !- Frame and Divider Name
  ,                                       !- Multiplier
  ,                                       !- Number of Vertices
  7.664208192, -4.34915955671915, 2.1336, !- X,Y,Z Vertex 1 {m}
  7.664208192, -4.34915955671915, 0.973806515917378, !- X,Y,Z Vertex 2 {m}
  7.664208192, -3.479096928, 0.973806515917378, !- X,Y,Z Vertex 3 {m}
  7.664208192, -3.479096928, 2.1336;      !- X,Y,Z Vertex 4 {m}

OS:AdditionalProperties,
  {fa433b86-38fd-4f70-8fa8-2c4b9e2e9927}, !- Handle
  {46f0318e-3033-4b48-b270-dc60ad7cd68f}, !- Object Name
  Index,                                  !- Feature Name 1
  Integer,                                !- Feature Data Type 1
  17;                                     !- Feature Value 1

OS:SubSurface,
  {74cec145-bbdb-454d-80dc-5b09dbfdedc1}, !- Handle
  Surface 4 - Window 6,                   !- Name
  FixedWindow,                            !- Sub Surface Type
  ,                                       !- Construction Name
  {e4578039-7ef4-44d0-9814-fb6e6af38856}, !- Surface Name
  ,                                       !- Outside Boundary Condition Object
  ,                                       !- View Factor to Ground
  ,                                       !- Frame and Divider Name
  ,                                       !- Multiplier
  ,                                       !- Number of Vertices
  7.664208192, -3.418136928, 2.1336,      !- X,Y,Z Vertex 1 {m}
  7.664208192, -3.418136928, 0.973806515917378, !- X,Y,Z Vertex 2 {m}
  7.664208192, -2.54807429928086, 0.973806515917378, !- X,Y,Z Vertex 3 {m}
  7.664208192, -2.54807429928086, 2.1336; !- X,Y,Z Vertex 4 {m}

OS:AdditionalProperties,
  {fa46709a-898d-4c8d-975d-5159a7f0e984}, !- Handle
  {74cec145-bbdb-454d-80dc-5b09dbfdedc1}, !- Object Name
  Index,                                  !- Feature Name 1
  Integer,                                !- Feature Data Type 1
  18;                                     !- Feature Value 1

