
OS:Version,
  {77931b96-7568-4ea7-b9c9-9c9fd0acb139}, !- Handle
  3.7.0;                                  !- Version Identifier

OS:ThermalZone,
  {6d874d8f-addc-4027-a100-9e8ec701e76c}, !- Handle
  conditioned space,                      !- Name
  ,                                       !- Multiplier
  ,                                       !- Ceiling Height {m}
  ,                                       !- Volume {m3}
  ,                                       !- Floor Area {m2}
  ,                                       !- Zone Inside Convection Algorithm
  ,                                       !- Zone Outside Convection Algorithm
  ,                                       !- Zone Conditioning Equipment List Name
  {6b47913e-7b27-43f5-8453-8ae73937e96b}, !- Zone Air Inlet Port List
  {3d79b453-34bb-4352-9fd7-c25da8a7642d}, !- Zone Air Exhaust Port List
  {b6ac795d-2db4-4811-bbbf-f5db3359e55b}, !- Zone Air Node Name
  {5f0d6431-1c0f-4148-813a-d1bda04f8e81}, !- Zone Return Air Port List
  ,                                       !- Primary Daylighting Control Name
  ,                                       !- Fraction of Zone Controlled by Primary Daylighting Control
  ,                                       !- Secondary Daylighting Control Name
  ,                                       !- Fraction of Zone Controlled by Secondary Daylighting Control
  ,                                       !- Illuminance Map Name
  ,                                       !- Group Rendering Name
  ,                                       !- Thermostat Name
  No;                                     !- Use Ideal Air Loads

OS:Node,
  {f77ada21-cede-43a9-9012-87594058e8fe}, !- Handle
  Node 1,                                 !- Name
  {b6ac795d-2db4-4811-bbbf-f5db3359e55b}, !- Inlet Port
  ;                                       !- Outlet Port

OS:Connection,
  {b6ac795d-2db4-4811-bbbf-f5db3359e55b}, !- Handle
  {6d874d8f-addc-4027-a100-9e8ec701e76c}, !- Source Object
  11,                                     !- Outlet Port
  {f77ada21-cede-43a9-9012-87594058e8fe}, !- Target Object
  2;                                      !- Inlet Port

OS:PortList,
  {6b47913e-7b27-43f5-8453-8ae73937e96b}, !- Handle
  {6d874d8f-addc-4027-a100-9e8ec701e76c}; !- HVAC Component

OS:PortList,
  {3d79b453-34bb-4352-9fd7-c25da8a7642d}, !- Handle
  {6d874d8f-addc-4027-a100-9e8ec701e76c}; !- HVAC Component

OS:PortList,
  {5f0d6431-1c0f-4148-813a-d1bda04f8e81}, !- Handle
  {6d874d8f-addc-4027-a100-9e8ec701e76c}; !- HVAC Component

OS:Sizing:Zone,
  {13751e51-de14-4c9e-8235-c2a15a80b6ea}, !- Handle
  {6d874d8f-addc-4027-a100-9e8ec701e76c}, !- Zone or ZoneList Name
  SupplyAirTemperature,                   !- Zone Cooling Design Supply Air Temperature Input Method
  14,                                     !- Zone Cooling Design Supply Air Temperature {C}
  11.11,                                  !- Zone Cooling Design Supply Air Temperature Difference {deltaC}
  SupplyAirTemperature,                   !- Zone Heating Design Supply Air Temperature Input Method
  40,                                     !- Zone Heating Design Supply Air Temperature {C}
  11.11,                                  !- Zone Heating Design Supply Air Temperature Difference {deltaC}
  0.0085,                                 !- Zone Cooling Design Supply Air Humidity Ratio {kg-H2O/kg-air}
  0.008,                                  !- Zone Heating Design Supply Air Humidity Ratio {kg-H2O/kg-air}
  ,                                       !- Zone Heating Sizing Factor
  ,                                       !- Zone Cooling Sizing Factor
  DesignDay,                              !- Cooling Design Air Flow Method
  ,                                       !- Cooling Design Air Flow Rate {m3/s}
  ,                                       !- Cooling Minimum Air Flow per Zone Floor Area {m3/s-m2}
  ,                                       !- Cooling Minimum Air Flow {m3/s}
  ,                                       !- Cooling Minimum Air Flow Fraction
  DesignDay,                              !- Heating Design Air Flow Method
  ,                                       !- Heating Design Air Flow Rate {m3/s}
  ,                                       !- Heating Maximum Air Flow per Zone Floor Area {m3/s-m2}
  ,                                       !- Heating Maximum Air Flow {m3/s}
  ,                                       !- Heating Maximum Air Flow Fraction
  No,                                     !- Account for Dedicated Outdoor Air System
  NeutralSupplyAir,                       !- Dedicated Outdoor Air System Control Strategy
  autosize,                               !- Dedicated Outdoor Air Low Setpoint Temperature for Design {C}
  autosize,                               !- Dedicated Outdoor Air High Setpoint Temperature for Design {C}
  Sensible Load Only No Latent Load,      !- Zone Load Sizing Method
  HumidityRatioDifference,                !- Zone Latent Cooling Design Supply Air Humidity Ratio Input Method
  ,                                       !- Zone Dehumidification Design Supply Air Humidity Ratio {kgWater/kgDryAir}
  0.005,                                  !- Zone Cooling Design Supply Air Humidity Ratio Difference {kgWater/kgDryAir}
  HumidityRatioDifference,                !- Zone Latent Heating Design Supply Air Humidity Ratio Input Method
  ,                                       !- Zone Humidification Design Supply Air Humidity Ratio {kgWater/kgDryAir}
  0.005;                                  !- Zone Humidification Design Supply Air Humidity Ratio Difference {kgWater/kgDryAir}

OS:ZoneHVAC:EquipmentList,
  {14009c35-4bcd-402c-a4a7-30b52e1be79a}, !- Handle
  Zone HVAC Equipment List 1,             !- Name
  {6d874d8f-addc-4027-a100-9e8ec701e76c}; !- Thermal Zone

OS:Space,
  {b06fbdc2-58af-4483-8828-31d768b45447}, !- Handle
  conditioned space 1,                    !- Name
  {b7a0c46d-90c3-4adf-83c1-dac3128e1d42}, !- Space Type Name
  ,                                       !- Default Construction Set Name
  ,                                       !- Default Schedule Set Name
  ,                                       !- Direction of Relative North {deg}
  ,                                       !- X Origin {m}
  ,                                       !- Y Origin {m}
  ,                                       !- Z Origin {m}
  ,                                       !- Building Story Name
  {6d874d8f-addc-4027-a100-9e8ec701e76c}; !- Thermal Zone Name

OS:Surface,
  {0a47d1dd-95ed-4b39-b895-f1e61f2e3a6e}, !- Handle
  Surface 1,                              !- Name
  Floor,                                  !- Surface Type
  ,                                       !- Construction Name
  {b06fbdc2-58af-4483-8828-31d768b45447}, !- Space Name
  Adiabatic,                              !- Outside Boundary Condition
  ,                                       !- Outside Boundary Condition Object
  NoSun,                                  !- Sun Exposure
  NoWind,                                 !- Wind Exposure
  ,                                       !- View Factor to Ground
  ,                                       !- Number of Vertices
  0, -13.7944686069043, 0,                !- X,Y,Z Vertex 1 {m}
  0, 0, 0,                                !- X,Y,Z Vertex 2 {m}
  7.66420675799603, 0, 0,                 !- X,Y,Z Vertex 3 {m}
  7.66420675799603, -13.7944686069043, 0; !- X,Y,Z Vertex 4 {m}

OS:Surface,
  {78bc10c8-c349-4ac7-a5f0-b66a00a25ec9}, !- Handle
  Surface 2,                              !- Name
  Wall,                                   !- Surface Type
  ,                                       !- Construction Name
  {b06fbdc2-58af-4483-8828-31d768b45447}, !- Space Name
  Adiabatic,                              !- Outside Boundary Condition
  ,                                       !- Outside Boundary Condition Object
  NoSun,                                  !- Sun Exposure
  NoWind,                                 !- Wind Exposure
  ,                                       !- View Factor to Ground
  ,                                       !- Number of Vertices
  0, -13.7944686069043, 2.4384,           !- X,Y,Z Vertex 1 {m}
  0, 0, 2.4384,                           !- X,Y,Z Vertex 2 {m}
  0, 0, 0,                                !- X,Y,Z Vertex 3 {m}
  0, -13.7944686069043, 0;                !- X,Y,Z Vertex 4 {m}

OS:Surface,
  {36201b97-6a27-424d-a569-c4af628f54db}, !- Handle
  Surface 3,                              !- Name
  Wall,                                   !- Surface Type
  ,                                       !- Construction Name
  {b06fbdc2-58af-4483-8828-31d768b45447}, !- Space Name
  Outdoors,                               !- Outside Boundary Condition
  ,                                       !- Outside Boundary Condition Object
  SunExposed,                             !- Sun Exposure
  WindExposed,                            !- Wind Exposure
  ,                                       !- View Factor to Ground
  ,                                       !- Number of Vertices
  0, 0, 2.4384,                           !- X,Y,Z Vertex 1 {m}
  7.66420675799603, 0, 2.4384,            !- X,Y,Z Vertex 2 {m}
  7.66420675799603, 0, 0,                 !- X,Y,Z Vertex 3 {m}
  0, 0, 0;                                !- X,Y,Z Vertex 4 {m}

OS:Surface,
  {e08f19f8-8d0e-4f2d-973a-b83a6222a116}, !- Handle
  Surface 4,                              !- Name
  Wall,                                   !- Surface Type
  ,                                       !- Construction Name
  {b06fbdc2-58af-4483-8828-31d768b45447}, !- Space Name
  Adiabatic,                              !- Outside Boundary Condition
  ,                                       !- Outside Boundary Condition Object
  NoSun,                                  !- Sun Exposure
  NoWind,                                 !- Wind Exposure
  ,                                       !- View Factor to Ground
  ,                                       !- Number of Vertices
  7.66420675799603, 0, 2.4384,            !- X,Y,Z Vertex 1 {m}
  7.66420675799603, -13.7944686069043, 2.4384, !- X,Y,Z Vertex 2 {m}
  7.66420675799603, -13.7944686069043, 0, !- X,Y,Z Vertex 3 {m}
  7.66420675799603, 0, 0;                 !- X,Y,Z Vertex 4 {m}

OS:Surface,
  {e83ff125-2f9a-40bd-83ad-22601bdd4a7e}, !- Handle
  Surface 5,                              !- Name
  Wall,                                   !- Surface Type
  ,                                       !- Construction Name
  {b06fbdc2-58af-4483-8828-31d768b45447}, !- Space Name
  Adiabatic,                              !- Outside Boundary Condition
  ,                                       !- Outside Boundary Condition Object
  NoSun,                                  !- Sun Exposure
  NoWind,                                 !- Wind Exposure
  ,                                       !- View Factor to Ground
  ,                                       !- Number of Vertices
  7.66420675799603, -13.7944686069043, 2.4384, !- X,Y,Z Vertex 1 {m}
  0, -13.7944686069043, 2.4384,           !- X,Y,Z Vertex 2 {m}
  0, -13.7944686069043, 0,                !- X,Y,Z Vertex 3 {m}
  7.66420675799603, -13.7944686069043, 0; !- X,Y,Z Vertex 4 {m}

OS:Surface,
  {d09929bc-2de6-4a6d-b1ab-2f6e918eac8a}, !- Handle
  Surface 6,                              !- Name
  RoofCeiling,                            !- Surface Type
  ,                                       !- Construction Name
  {b06fbdc2-58af-4483-8828-31d768b45447}, !- Space Name
  Outdoors,                               !- Outside Boundary Condition
  ,                                       !- Outside Boundary Condition Object
  SunExposed,                             !- Sun Exposure
  WindExposed,                            !- Wind Exposure
  ,                                       !- View Factor to Ground
  ,                                       !- Number of Vertices
  7.66420675799603, -13.7944686069043, 2.4384, !- X,Y,Z Vertex 1 {m}
  7.66420675799603, 0, 2.4384,            !- X,Y,Z Vertex 2 {m}
  0, 0, 2.4384,                           !- X,Y,Z Vertex 3 {m}
  0, -13.7944686069043, 2.4384;           !- X,Y,Z Vertex 4 {m}

OS:AdditionalProperties,
  {16927813-24d2-4841-b1aa-88ec7f21c6a6}, !- Handle
  {b06fbdc2-58af-4483-8828-31d768b45447}, !- Object Name
  Index,                                  !- Feature Name 1
  Integer,                                !- Feature Data Type 1
  1;                                      !- Feature Value 1

OS:AdditionalProperties,
  {9247cc08-aed5-40f2-a49a-f6c39299c0bd}, !- Handle
  {e08f19f8-8d0e-4f2d-973a-b83a6222a116}, !- Object Name
  Index,                                  !- Feature Name 1
  Integer,                                !- Feature Data Type 1
  4;                                      !- Feature Value 1

OS:AdditionalProperties,
  {ad462ff4-2def-4384-856d-dcd37ac77bbb}, !- Handle
  {0a47d1dd-95ed-4b39-b895-f1e61f2e3a6e}, !- Object Name
  Index,                                  !- Feature Name 1
  Integer,                                !- Feature Data Type 1
  2;                                      !- Feature Value 1

OS:AdditionalProperties,
  {61728c3e-4a61-4451-be71-c6ced0c966dc}, !- Handle
  {e83ff125-2f9a-40bd-83ad-22601bdd4a7e}, !- Object Name
  Index,                                  !- Feature Name 1
  Integer,                                !- Feature Data Type 1
  5;                                      !- Feature Value 1

OS:AdditionalProperties,
  {dd0578e6-b0d6-4f78-a402-479b09343fbf}, !- Handle
  {78bc10c8-c349-4ac7-a5f0-b66a00a25ec9}, !- Object Name
  Index,                                  !- Feature Name 1
  Integer,                                !- Feature Data Type 1
  6;                                      !- Feature Value 1

OS:AdditionalProperties,
  {ac93e224-36e6-4813-ab63-2b844801b46e}, !- Handle
  {36201b97-6a27-424d-a569-c4af628f54db}, !- Object Name
  Index,                                  !- Feature Name 1
  Integer,                                !- Feature Data Type 1
  3;                                      !- Feature Value 1

OS:AdditionalProperties,
  {cc60bb17-d35b-421b-9653-85bbaa314ad5}, !- Handle
  {d09929bc-2de6-4a6d-b1ab-2f6e918eac8a}, !- Object Name
  Index,                                  !- Feature Name 1
  Integer,                                !- Feature Data Type 1
  7;                                      !- Feature Value 1

OS:SpaceType,
  {b7a0c46d-90c3-4adf-83c1-dac3128e1d42}, !- Handle
  Space Type 1,                           !- Name
  ,                                       !- Default Construction Set Name
  ,                                       !- Default Schedule Set Name
  ,                                       !- Group Rendering Name
  ,                                       !- Design Specification Outdoor Air Object Name
  ,                                       !- Standards Template
  ,                                       !- Standards Building Type
  conditioned space;                      !- Standards Space Type

OS:SubSurface,
  {ff88c327-8af3-46e9-a54b-24175c1fd2c0}, !- Handle
  Surface 5 - Door,                       !- Name
  Door,                                   !- Sub Surface Type
  ,                                       !- Construction Name
  {e83ff125-2f9a-40bd-83ad-22601bdd4a7e}, !- Surface Name
  ,                                       !- Outside Boundary Condition Object
  ,                                       !- View Factor to Ground
  ,                                       !- Frame and Divider Name
  ,                                       !- Multiplier
  ,                                       !- Number of Vertices
  0.1524, -13.794467712, 2.1336,          !- X,Y,Z Vertex 1 {m}
  0.1524, -13.794467712, 0,               !- X,Y,Z Vertex 2 {m}
  1.02325714285714, -13.794467712, 0,     !- X,Y,Z Vertex 3 {m}
  1.02325714285714, -13.794467712, 2.1336; !- X,Y,Z Vertex 4 {m}

OS:AdditionalProperties,
  {e9c19fbb-6b6c-4ca1-a6a8-d8f749fbbc2a}, !- Handle
  {ff88c327-8af3-46e9-a54b-24175c1fd2c0}, !- Object Name
  Index,                                  !- Feature Name 1
  Integer,                                !- Feature Data Type 1
  8;                                      !- Feature Value 1

OS:SubSurface,
  {3b83310d-6dc2-4e9c-acfa-c4fd03a192c3}, !- Handle
  Surface 3 - Window 1,                   !- Name
  FixedWindow,                            !- Sub Surface Type
  ,                                       !- Construction Name
  {36201b97-6a27-424d-a569-c4af628f54db}, !- Surface Name
  ,                                       !- Outside Boundary Condition Object
  ,                                       !- View Factor to Ground
  ,                                       !- Frame and Divider Name
  ,                                       !- Multiplier
  ,                                       !- Number of Vertices
  5.93423877787937, 0, 2.1336,            !- X,Y,Z Vertex 1 {m}
  5.93423877787937, 0, 1.07481589571081,  !- X,Y,Z Vertex 2 {m}
  5.139952128, 0, 1.07481589571081,       !- X,Y,Z Vertex 3 {m}
  5.139952128, 0, 2.1336;                 !- X,Y,Z Vertex 4 {m}

OS:AdditionalProperties,
  {90d90107-bfe9-4d0e-a3f1-830aa4f3a99f}, !- Handle
  {3b83310d-6dc2-4e9c-acfa-c4fd03a192c3}, !- Object Name
  Index,                                  !- Feature Name 1
  Integer,                                !- Feature Data Type 1
  9;                                      !- Feature Value 1

OS:SubSurface,
  {99fc20b2-20a6-4b99-8405-5330e0560bf0}, !- Handle
  Surface 3 - Window 2,                   !- Name
  FixedWindow,                            !- Sub Surface Type
  ,                                       !- Construction Name
  {36201b97-6a27-424d-a569-c4af628f54db}, !- Surface Name
  ,                                       !- Outside Boundary Condition Object
  ,                                       !- View Factor to Ground
  ,                                       !- Frame and Divider Name
  ,                                       !- Multiplier
  ,                                       !- Number of Vertices
  5.078992128, 0, 2.1336,                 !- X,Y,Z Vertex 1 {m}
  5.078992128, 0, 1.07481589571081,       !- X,Y,Z Vertex 2 {m}
  4.28470547812063, 0, 1.07481589571081,  !- X,Y,Z Vertex 3 {m}
  4.28470547812063, 0, 2.1336;            !- X,Y,Z Vertex 4 {m}

OS:AdditionalProperties,
  {f1af8e81-a521-40de-9630-9b5fcfd39f83}, !- Handle
  {99fc20b2-20a6-4b99-8405-5330e0560bf0}, !- Object Name
  Index,                                  !- Feature Name 1
  Integer,                                !- Feature Data Type 1
  10;                                     !- Feature Value 1

OS:SubSurface,
  {51773bb9-b65a-4b04-8aed-0d9ba2a43afc}, !- Handle
  Surface 3 - Window 3,                   !- Name
  FixedWindow,                            !- Sub Surface Type
  ,                                       !- Construction Name
  {36201b97-6a27-424d-a569-c4af628f54db}, !- Surface Name
  ,                                       !- Outside Boundary Condition Object
  ,                                       !- View Factor to Ground
  ,                                       !- Frame and Divider Name
  ,                                       !- Multiplier
  ,                                       !- Number of Vertices
  3.37950271387937, 0, 2.1336,            !- X,Y,Z Vertex 1 {m}
  3.37950271387937, 0, 1.07481589571081,  !- X,Y,Z Vertex 2 {m}
  2.585216064, 0, 1.07481589571081,       !- X,Y,Z Vertex 3 {m}
  2.585216064, 0, 2.1336;                 !- X,Y,Z Vertex 4 {m}

OS:AdditionalProperties,
  {0b8d1bc6-70d8-4f90-8ba7-c28accaf8983}, !- Handle
  {51773bb9-b65a-4b04-8aed-0d9ba2a43afc}, !- Object Name
  Index,                                  !- Feature Name 1
  Integer,                                !- Feature Data Type 1
  11;                                     !- Feature Value 1

OS:SubSurface,
  {7707fa26-c603-466c-914f-180219711a31}, !- Handle
  Surface 3 - Window 4,                   !- Name
  FixedWindow,                            !- Sub Surface Type
  ,                                       !- Construction Name
  {36201b97-6a27-424d-a569-c4af628f54db}, !- Surface Name
  ,                                       !- Outside Boundary Condition Object
  ,                                       !- View Factor to Ground
  ,                                       !- Frame and Divider Name
  ,                                       !- Multiplier
  ,                                       !- Number of Vertices
  2.524256064, 0, 2.1336,                 !- X,Y,Z Vertex 1 {m}
  2.524256064, 0, 1.07481589571081,       !- X,Y,Z Vertex 2 {m}
  1.72996941412063, 0, 1.07481589571081,  !- X,Y,Z Vertex 3 {m}
  1.72996941412063, 0, 2.1336;            !- X,Y,Z Vertex 4 {m}

OS:AdditionalProperties,
  {9fa6b54c-4ac0-46d3-b5d1-f7d6ec149624}, !- Handle
  {7707fa26-c603-466c-914f-180219711a31}, !- Object Name
  Index,                                  !- Feature Name 1
  Integer,                                !- Feature Data Type 1
  12;                                     !- Feature Value 1

