
OS:Version,
  {3c9281de-19dc-422d-8edc-ee000064b133}, !- Handle
  3.7.0;                                  !- Version Identifier

OS:ThermalZone,
  {b4d5827e-a4f3-4dd5-af85-8aec27525610}, !- Handle
  conditioned space,                      !- Name
  ,                                       !- Multiplier
  ,                                       !- Ceiling Height {m}
  ,                                       !- Volume {m3}
  ,                                       !- Floor Area {m2}
  ,                                       !- Zone Inside Convection Algorithm
  ,                                       !- Zone Outside Convection Algorithm
  ,                                       !- Zone Conditioning Equipment List Name
  {b9d5e41c-f8b6-4c69-a00a-ab98442bbf56}, !- Zone Air Inlet Port List
  {0a373908-ea3b-4407-8b3f-2bb0ea678a83}, !- Zone Air Exhaust Port List
  {0b02193e-ca21-41a0-b68a-fa75df719c09}, !- Zone Air Node Name
  {78f4d27f-1ca2-41dd-8596-a499ffb93c68}, !- Zone Return Air Port List
  ,                                       !- Primary Daylighting Control Name
  ,                                       !- Fraction of Zone Controlled by Primary Daylighting Control
  ,                                       !- Secondary Daylighting Control Name
  ,                                       !- Fraction of Zone Controlled by Secondary Daylighting Control
  ,                                       !- Illuminance Map Name
  ,                                       !- Group Rendering Name
  ,                                       !- Thermostat Name
  No;                                     !- Use Ideal Air Loads

OS:Node,
  {996df678-b91c-434a-83af-091dfec2808a}, !- Handle
  Node 1,                                 !- Name
  {0b02193e-ca21-41a0-b68a-fa75df719c09}, !- Inlet Port
  ;                                       !- Outlet Port

OS:Connection,
  {0b02193e-ca21-41a0-b68a-fa75df719c09}, !- Handle
  {b4d5827e-a4f3-4dd5-af85-8aec27525610}, !- Source Object
  11,                                     !- Outlet Port
  {996df678-b91c-434a-83af-091dfec2808a}, !- Target Object
  2;                                      !- Inlet Port

OS:PortList,
  {b9d5e41c-f8b6-4c69-a00a-ab98442bbf56}, !- Handle
  {b4d5827e-a4f3-4dd5-af85-8aec27525610}; !- HVAC Component

OS:PortList,
  {0a373908-ea3b-4407-8b3f-2bb0ea678a83}, !- Handle
  {b4d5827e-a4f3-4dd5-af85-8aec27525610}; !- HVAC Component

OS:PortList,
  {78f4d27f-1ca2-41dd-8596-a499ffb93c68}, !- Handle
  {b4d5827e-a4f3-4dd5-af85-8aec27525610}; !- HVAC Component

OS:Sizing:Zone,
  {99534706-9093-4ae4-abea-45e067643db3}, !- Handle
  {b4d5827e-a4f3-4dd5-af85-8aec27525610}, !- Zone or ZoneList Name
  SupplyAirTemperature,                   !- Zone Cooling Design Supply Air Temperature Input Method
  14,                                     !- Zone Cooling Design Supply Air Temperature {C}
  11.11,                                  !- Zone Cooling Design Supply Air Temperature Difference {deltaC}
  SupplyAirTemperature,                   !- Zone Heating Design Supply Air Temperature Input Method
  40,                                     !- Zone Heating Design Supply Air Temperature {C}
  11.11,                                  !- Zone Heating Design Supply Air Temperature Difference {deltaC}
  0.0085,                                 !- Zone Cooling Design Supply Air Humidity Ratio {kg-H2O/kg-air}
  0.008,                                  !- Zone Heating Design Supply Air Humidity Ratio {kg-H2O/kg-air}
  ,                                       !- Zone Heating Sizing Factor
  ,                                       !- Zone Cooling Sizing Factor
  DesignDay,                              !- Cooling Design Air Flow Method
  ,                                       !- Cooling Design Air Flow Rate {m3/s}
  ,                                       !- Cooling Minimum Air Flow per Zone Floor Area {m3/s-m2}
  ,                                       !- Cooling Minimum Air Flow {m3/s}
  ,                                       !- Cooling Minimum Air Flow Fraction
  DesignDay,                              !- Heating Design Air Flow Method
  ,                                       !- Heating Design Air Flow Rate {m3/s}
  ,                                       !- Heating Maximum Air Flow per Zone Floor Area {m3/s-m2}
  ,                                       !- Heating Maximum Air Flow {m3/s}
  ,                                       !- Heating Maximum Air Flow Fraction
  No,                                     !- Account for Dedicated Outdoor Air System
  NeutralSupplyAir,                       !- Dedicated Outdoor Air System Control Strategy
  autosize,                               !- Dedicated Outdoor Air Low Setpoint Temperature for Design {C}
  autosize,                               !- Dedicated Outdoor Air High Setpoint Temperature for Design {C}
  Sensible Load Only No Latent Load,      !- Zone Load Sizing Method
  HumidityRatioDifference,                !- Zone Latent Cooling Design Supply Air Humidity Ratio Input Method
  ,                                       !- Zone Dehumidification Design Supply Air Humidity Ratio {kgWater/kgDryAir}
  0.005,                                  !- Zone Cooling Design Supply Air Humidity Ratio Difference {kgWater/kgDryAir}
  HumidityRatioDifference,                !- Zone Latent Heating Design Supply Air Humidity Ratio Input Method
  ,                                       !- Zone Humidification Design Supply Air Humidity Ratio {kgWater/kgDryAir}
  0.005;                                  !- Zone Humidification Design Supply Air Humidity Ratio Difference {kgWater/kgDryAir}

OS:ZoneHVAC:EquipmentList,
  {f9a63546-151b-4f8c-96ef-f5b5e1340459}, !- Handle
  Zone HVAC Equipment List 1,             !- Name
  {b4d5827e-a4f3-4dd5-af85-8aec27525610}; !- Thermal Zone

OS:Space,
  {ef84e411-c19f-47e3-882e-41ca44401920}, !- Handle
  conditioned space 1,                    !- Name
  {d1a8a30e-4f7c-4433-97d9-ce390c83ff25}, !- Space Type Name
  ,                                       !- Default Construction Set Name
  ,                                       !- Default Schedule Set Name
  ,                                       !- Direction of Relative North {deg}
  ,                                       !- X Origin {m}
  ,                                       !- Y Origin {m}
  ,                                       !- Z Origin {m}
  ,                                       !- Building Story Name
  {b4d5827e-a4f3-4dd5-af85-8aec27525610}; !- Thermal Zone Name

OS:Surface,
  {a1ab622d-4440-4a5e-ada9-7450167c3cd6}, !- Handle
  Surface 1,                              !- Name
  Floor,                                  !- Surface Type
  ,                                       !- Construction Name
  {ef84e411-c19f-47e3-882e-41ca44401920}, !- Space Name
  Surface,                                !- Outside Boundary Condition
  {a86884cf-848d-42ce-ad05-46ac1b0f53f9}, !- Outside Boundary Condition Object
  NoSun,                                  !- Sun Exposure
  NoWind,                                 !- Wind Exposure
  ,                                       !- View Factor to Ground
  ,                                       !- Number of Vertices
  5.3731805262269, 0, 0.23495,            !- X,Y,Z Vertex 1 {m}
  5.3731805262269, -9.67095127110673, 0.23495, !- X,Y,Z Vertex 2 {m}
  0, -9.67095127110673, 0.23495,          !- X,Y,Z Vertex 3 {m}
  0, 0, 0.23495;                          !- X,Y,Z Vertex 4 {m}

OS:Surface,
  {35d7adca-a242-4979-982e-61bfc2f89851}, !- Handle
  Surface 2,                              !- Name
  Wall,                                   !- Surface Type
  ,                                       !- Construction Name
  {ef84e411-c19f-47e3-882e-41ca44401920}, !- Space Name
  Adiabatic,                              !- Outside Boundary Condition
  ,                                       !- Outside Boundary Condition Object
  NoSun,                                  !- Sun Exposure
  NoWind,                                 !- Wind Exposure
  ,                                       !- View Factor to Ground
  ,                                       !- Number of Vertices
  0, -9.67095127110673, 2.67335,          !- X,Y,Z Vertex 1 {m}
  0, 0, 2.67335,                          !- X,Y,Z Vertex 2 {m}
  0, 0, 0.23495,                          !- X,Y,Z Vertex 3 {m}
  0, -9.67095127110673, 0.23495;          !- X,Y,Z Vertex 4 {m}

OS:Surface,
  {ad47a874-6536-4fe5-9bd4-09e00bc5698d}, !- Handle
  Surface 3,                              !- Name
  Wall,                                   !- Surface Type
  ,                                       !- Construction Name
  {ef84e411-c19f-47e3-882e-41ca44401920}, !- Space Name
  Outdoors,                               !- Outside Boundary Condition
  ,                                       !- Outside Boundary Condition Object
  SunExposed,                             !- Sun Exposure
  WindExposed,                            !- Wind Exposure
  ,                                       !- View Factor to Ground
  ,                                       !- Number of Vertices
  0, 0, 2.67335,                          !- X,Y,Z Vertex 1 {m}
  5.3731805262269, 0, 2.67335,            !- X,Y,Z Vertex 2 {m}
  5.3731805262269, 0, 0.23495,            !- X,Y,Z Vertex 3 {m}
  0, 0, 0.23495;                          !- X,Y,Z Vertex 4 {m}

OS:Surface,
  {7bc6ba5d-c2f8-47fd-b52b-879a1cab722e}, !- Handle
  Surface 4,                              !- Name
  Wall,                                   !- Surface Type
  ,                                       !- Construction Name
  {ef84e411-c19f-47e3-882e-41ca44401920}, !- Space Name
  Adiabatic,                              !- Outside Boundary Condition
  ,                                       !- Outside Boundary Condition Object
  NoSun,                                  !- Sun Exposure
  NoWind,                                 !- Wind Exposure
  ,                                       !- View Factor to Ground
  ,                                       !- Number of Vertices
  5.3731805262269, 0, 2.67335,            !- X,Y,Z Vertex 1 {m}
  5.3731805262269, -9.67095127110673, 2.67335, !- X,Y,Z Vertex 2 {m}
  5.3731805262269, -9.67095127110673, 0.23495, !- X,Y,Z Vertex 3 {m}
  5.3731805262269, 0, 0.23495;            !- X,Y,Z Vertex 4 {m}

OS:Surface,
  {ab584dc1-e0b7-40ea-898b-68641fd6b4a2}, !- Handle
  Surface 5,                              !- Name
  Wall,                                   !- Surface Type
  ,                                       !- Construction Name
  {ef84e411-c19f-47e3-882e-41ca44401920}, !- Space Name
  Outdoors,                               !- Outside Boundary Condition
  ,                                       !- Outside Boundary Condition Object
  SunExposed,                             !- Sun Exposure
  WindExposed,                            !- Wind Exposure
  ,                                       !- View Factor to Ground
  ,                                       !- Number of Vertices
  5.3731805262269, -9.67095127110673, 0.23495, !- X,Y,Z Vertex 1 {m}
  5.3731805262269, -9.67095127110673, 2.67335, !- X,Y,Z Vertex 2 {m}
  1.04865714285714, -9.67095127110673, 2.67335, !- X,Y,Z Vertex 3 {m}
  1.04865714285714, -9.67095127110673, 0.23495; !- X,Y,Z Vertex 4 {m}

OS:Surface,
  {e5e5b767-e0e6-4c2d-849b-9786d1b7cf13}, !- Handle
  Surface 6,                              !- Name
  RoofCeiling,                            !- Surface Type
  ,                                       !- Construction Name
  {ef84e411-c19f-47e3-882e-41ca44401920}, !- Space Name
  Surface,                                !- Outside Boundary Condition
  {97e0a7f8-d257-41a8-895c-09505c2b77e6}, !- Outside Boundary Condition Object
  NoSun,                                  !- Sun Exposure
  NoWind,                                 !- Wind Exposure
  ,                                       !- View Factor to Ground
  ,                                       !- Number of Vertices
  5.3731805262269, -9.67095127110673, 2.67335, !- X,Y,Z Vertex 1 {m}
  5.3731805262269, 0, 2.67335,            !- X,Y,Z Vertex 2 {m}
  0, 0, 2.67335,                          !- X,Y,Z Vertex 3 {m}
  0, -9.67095127110673, 2.67335;          !- X,Y,Z Vertex 4 {m}

OS:AdditionalProperties,
  {4f7efb69-6675-4537-94e8-f790765a2dd8}, !- Handle
  {ef84e411-c19f-47e3-882e-41ca44401920}, !- Object Name
  Index,                                  !- Feature Name 1
  Integer,                                !- Feature Data Type 1
  1;                                      !- Feature Value 1

OS:AdditionalProperties,
  {db73ea9f-244a-4ed3-86f1-4a6d74922b80}, !- Handle
  {7bc6ba5d-c2f8-47fd-b52b-879a1cab722e}, !- Object Name
  Index,                                  !- Feature Name 1
  Integer,                                !- Feature Data Type 1
  4;                                      !- Feature Value 1

OS:AdditionalProperties,
  {6c85bf53-af7f-4b89-9b18-a93c7c5a59cb}, !- Handle
  {a1ab622d-4440-4a5e-ada9-7450167c3cd6}, !- Object Name
  Index,                                  !- Feature Name 1
  Integer,                                !- Feature Data Type 1
  2;                                      !- Feature Value 1

OS:AdditionalProperties,
  {957dbe67-4f6d-4c86-97ab-c8908d5ff628}, !- Handle
  {ab584dc1-e0b7-40ea-898b-68641fd6b4a2}, !- Object Name
  Index,                                  !- Feature Name 1
  Integer,                                !- Feature Data Type 1
  5;                                      !- Feature Value 1

OS:AdditionalProperties,
  {ef6b0e65-d87f-4a83-a0ff-75d451ec01b5}, !- Handle
  {35d7adca-a242-4979-982e-61bfc2f89851}, !- Object Name
  Index,                                  !- Feature Name 1
  Integer,                                !- Feature Data Type 1
  6;                                      !- Feature Value 1

OS:AdditionalProperties,
  {ade29749-341c-4524-9a49-c499835988b4}, !- Handle
  {ad47a874-6536-4fe5-9bd4-09e00bc5698d}, !- Object Name
  Index,                                  !- Feature Name 1
  Integer,                                !- Feature Data Type 1
  3;                                      !- Feature Value 1

OS:AdditionalProperties,
  {591d77a3-2d21-482f-829e-de4b56973fee}, !- Handle
  {e5e5b767-e0e6-4c2d-849b-9786d1b7cf13}, !- Object Name
  Index,                                  !- Feature Name 1
  Integer,                                !- Feature Data Type 1
  7;                                      !- Feature Value 1

OS:SpaceType,
  {d1a8a30e-4f7c-4433-97d9-ce390c83ff25}, !- Handle
  Space Type 1,                           !- Name
  ,                                       !- Default Construction Set Name
  ,                                       !- Default Schedule Set Name
  ,                                       !- Group Rendering Name
  ,                                       !- Design Specification Outdoor Air Object Name
  ,                                       !- Standards Template
  ,                                       !- Standards Building Type
  conditioned space;                      !- Standards Space Type

OS:Space,
  {b8239f27-d0e8-4593-bf47-e8696167a39d}, !- Handle
  conditioned space|story 2,              !- Name
  {d1a8a30e-4f7c-4433-97d9-ce390c83ff25}, !- Space Type Name
  ,                                       !- Default Construction Set Name
  ,                                       !- Default Schedule Set Name
  -0,                                     !- Direction of Relative North {deg}
  0,                                      !- X Origin {m}
  0,                                      !- Y Origin {m}
  2.4384,                                 !- Z Origin {m}
  ,                                       !- Building Story Name
  {b4d5827e-a4f3-4dd5-af85-8aec27525610}; !- Thermal Zone Name

OS:AdditionalProperties,
  {dda2e05b-884b-41f2-9e01-de18b5a4004a}, !- Handle
  {b8239f27-d0e8-4593-bf47-e8696167a39d}, !- Object Name
  Index,                                  !- Feature Name 1
  Integer,                                !- Feature Data Type 1
  8;                                      !- Feature Value 1

OS:Surface,
  {fd7c0067-9867-4e1e-9052-5b3f18f6a757}, !- Handle
  Surface 7,                              !- Name
  Wall,                                   !- Surface Type
  ,                                       !- Construction Name
  {b8239f27-d0e8-4593-bf47-e8696167a39d}, !- Space Name
  Adiabatic,                              !- Outside Boundary Condition
  ,                                       !- Outside Boundary Condition Object
  NoSun,                                  !- Sun Exposure
  NoWind,                                 !- Wind Exposure
  ,                                       !- View Factor to Ground
  ,                                       !- Number of Vertices
  0, -9.67095127110673, 2.67335,          !- X,Y,Z Vertex 1 {m}
  0, 0, 2.67335,                          !- X,Y,Z Vertex 2 {m}
  0, 0, 0.23495,                          !- X,Y,Z Vertex 3 {m}
  0, -9.67095127110673, 0.23495;          !- X,Y,Z Vertex 4 {m}

OS:AdditionalProperties,
  {884454d9-201f-4f59-a642-48ea02a14358}, !- Handle
  {fd7c0067-9867-4e1e-9052-5b3f18f6a757}, !- Object Name
  Index,                                  !- Feature Name 1
  Integer,                                !- Feature Data Type 1
  13;                                     !- Feature Value 1

OS:Surface,
  {97e0a7f8-d257-41a8-895c-09505c2b77e6}, !- Handle
  Surface 8,                              !- Name
  Floor,                                  !- Surface Type
  ,                                       !- Construction Name
  {b8239f27-d0e8-4593-bf47-e8696167a39d}, !- Space Name
  Surface,                                !- Outside Boundary Condition
  {e5e5b767-e0e6-4c2d-849b-9786d1b7cf13}, !- Outside Boundary Condition Object
  NoSun,                                  !- Sun Exposure
  NoWind,                                 !- Wind Exposure
  ,                                       !- View Factor to Ground
  ,                                       !- Number of Vertices
  5.3731805262269, 0, 0.23495,            !- X,Y,Z Vertex 1 {m}
  5.3731805262269, -9.67095127110673, 0.23495, !- X,Y,Z Vertex 2 {m}
  0, -9.67095127110673, 0.23495,          !- X,Y,Z Vertex 3 {m}
  0, 0, 0.23495;                          !- X,Y,Z Vertex 4 {m}

OS:AdditionalProperties,
  {7637222f-5f2f-4582-951e-5489b8568005}, !- Handle
  {97e0a7f8-d257-41a8-895c-09505c2b77e6}, !- Object Name
  Index,                                  !- Feature Name 1
  Integer,                                !- Feature Data Type 1
  9;                                      !- Feature Value 1

OS:Surface,
  {24381c0f-e7a6-48c2-83ef-08d7230a418b}, !- Handle
  Surface 9,                              !- Name
  Wall,                                   !- Surface Type
  ,                                       !- Construction Name
  {b8239f27-d0e8-4593-bf47-e8696167a39d}, !- Space Name
  Adiabatic,                              !- Outside Boundary Condition
  ,                                       !- Outside Boundary Condition Object
  NoSun,                                  !- Sun Exposure
  NoWind,                                 !- Wind Exposure
  ,                                       !- View Factor to Ground
  ,                                       !- Number of Vertices
  5.3731805262269, 0, 2.67335,            !- X,Y,Z Vertex 1 {m}
  5.3731805262269, -9.67095127110673, 2.67335, !- X,Y,Z Vertex 2 {m}
  5.3731805262269, -9.67095127110673, 0.23495, !- X,Y,Z Vertex 3 {m}
  5.3731805262269, 0, 0.23495;            !- X,Y,Z Vertex 4 {m}

OS:AdditionalProperties,
  {7a7567fc-f402-4bfa-b4ff-00638c6c6f3f}, !- Handle
  {24381c0f-e7a6-48c2-83ef-08d7230a418b}, !- Object Name
  Index,                                  !- Feature Name 1
  Integer,                                !- Feature Data Type 1
  11;                                     !- Feature Value 1

OS:Surface,
  {f0d07c9e-8a9b-490f-93c3-ecab8f0a59d2}, !- Handle
  Surface 10,                             !- Name
  Wall,                                   !- Surface Type
  ,                                       !- Construction Name
  {b8239f27-d0e8-4593-bf47-e8696167a39d}, !- Space Name
  Outdoors,                               !- Outside Boundary Condition
  ,                                       !- Outside Boundary Condition Object
  SunExposed,                             !- Sun Exposure
  WindExposed,                            !- Wind Exposure
  ,                                       !- View Factor to Ground
  ,                                       !- Number of Vertices
  5.3731805262269, -9.67095127110673, 2.67335, !- X,Y,Z Vertex 1 {m}
  0, -9.67095127110673, 2.67335,          !- X,Y,Z Vertex 2 {m}
  0, -9.67095127110673, 0.23495,          !- X,Y,Z Vertex 3 {m}
  5.3731805262269, -9.67095127110673, 0.23495; !- X,Y,Z Vertex 4 {m}

OS:AdditionalProperties,
  {42eabac0-80f3-48c4-a766-0dba588cb7a1}, !- Handle
  {f0d07c9e-8a9b-490f-93c3-ecab8f0a59d2}, !- Object Name
  Index,                                  !- Feature Name 1
  Integer,                                !- Feature Data Type 1
  12;                                     !- Feature Value 1

OS:Surface,
  {9dcdc68f-ff76-4f6c-a230-b4febf19c862}, !- Handle
  Surface 11,                             !- Name
  RoofCeiling,                            !- Surface Type
  ,                                       !- Construction Name
  {b8239f27-d0e8-4593-bf47-e8696167a39d}, !- Space Name
  Outdoors,                               !- Outside Boundary Condition
  ,                                       !- Outside Boundary Condition Object
  SunExposed,                             !- Sun Exposure
  WindExposed,                            !- Wind Exposure
  ,                                       !- View Factor to Ground
  ,                                       !- Number of Vertices
  5.3731805262269, -9.67095127110673, 2.67335, !- X,Y,Z Vertex 1 {m}
  5.3731805262269, 0, 2.67335,            !- X,Y,Z Vertex 2 {m}
  0, 0, 2.67335,                          !- X,Y,Z Vertex 3 {m}
  0, -9.67095127110673, 2.67335;          !- X,Y,Z Vertex 4 {m}

OS:AdditionalProperties,
  {65efa675-3e1a-4b43-af1d-655ac8c95c56}, !- Handle
  {9dcdc68f-ff76-4f6c-a230-b4febf19c862}, !- Object Name
  Index,                                  !- Feature Name 1
  Integer,                                !- Feature Data Type 1
  14;                                     !- Feature Value 1

OS:Surface,
  {d4762fef-923b-4f43-94a5-28c1379afd49}, !- Handle
  Surface 12,                             !- Name
  Wall,                                   !- Surface Type
  ,                                       !- Construction Name
  {b8239f27-d0e8-4593-bf47-e8696167a39d}, !- Space Name
  Outdoors,                               !- Outside Boundary Condition
  ,                                       !- Outside Boundary Condition Object
  SunExposed,                             !- Sun Exposure
  WindExposed,                            !- Wind Exposure
  ,                                       !- View Factor to Ground
  ,                                       !- Number of Vertices
  0, 0, 2.67335,                          !- X,Y,Z Vertex 1 {m}
  5.3731805262269, 0, 2.67335,            !- X,Y,Z Vertex 2 {m}
  5.3731805262269, 0, 0.23495,            !- X,Y,Z Vertex 3 {m}
  0, 0, 0.23495;                          !- X,Y,Z Vertex 4 {m}

OS:AdditionalProperties,
  {63c4f7cf-dd70-417b-95c8-597eaa2755b3}, !- Handle
  {d4762fef-923b-4f43-94a5-28c1379afd49}, !- Object Name
  Index,                                  !- Feature Name 1
  Integer,                                !- Feature Data Type 1
  10;                                     !- Feature Value 1

OS:Space,
  {a7705e2c-5410-4dfe-904f-316e07d15ae6}, !- Handle
  basement - conditioned 1,               !- Name
  {5ca04698-f0e3-4ff8-a849-3633e0412627}, !- Space Type Name
  ,                                       !- Default Construction Set Name
  ,                                       !- Default Schedule Set Name
  -0,                                     !- Direction of Relative North {deg}
  0,                                      !- X Origin {m}
  0,                                      !- Y Origin {m}
  0,                                      !- Z Origin {m}
  ,                                       !- Building Story Name
  {374046eb-8e29-4cca-9f66-eebc929a8e58}; !- Thermal Zone Name

OS:Surface,
  {c51d0c81-1277-4087-90e0-18c6235d97b0}, !- Handle
  Surface 13,                             !- Name
  Floor,                                  !- Surface Type
  ,                                       !- Construction Name
  {a7705e2c-5410-4dfe-904f-316e07d15ae6}, !- Space Name
  Foundation,                             !- Outside Boundary Condition
  ,                                       !- Outside Boundary Condition Object
  NoSun,                                  !- Sun Exposure
  NoWind,                                 !- Wind Exposure
  ,                                       !- View Factor to Ground
  ,                                       !- Number of Vertices
  0, -9.67095127110673, -2.20345,         !- X,Y,Z Vertex 1 {m}
  0, 0, -2.20345,                         !- X,Y,Z Vertex 2 {m}
  5.3731805262269, 0, -2.20345,           !- X,Y,Z Vertex 3 {m}
  5.3731805262269, -9.67095127110673, -2.20345; !- X,Y,Z Vertex 4 {m}

OS:Surface,
  {822ac406-f43c-4495-a109-e3210d7cc020}, !- Handle
  Surface 14,                             !- Name
  Wall,                                   !- Surface Type
  ,                                       !- Construction Name
  {a7705e2c-5410-4dfe-904f-316e07d15ae6}, !- Space Name
  Adiabatic,                              !- Outside Boundary Condition
  ,                                       !- Outside Boundary Condition Object
  NoSun,                                  !- Sun Exposure
  NoWind,                                 !- Wind Exposure
  ,                                       !- View Factor to Ground
  ,                                       !- Number of Vertices
  0, -9.67095127110673, 0.23495,          !- X,Y,Z Vertex 1 {m}
  0, 0, 0.23495,                          !- X,Y,Z Vertex 2 {m}
  0, 0, -2.20345,                         !- X,Y,Z Vertex 3 {m}
  0, -9.67095127110673, -2.20345;         !- X,Y,Z Vertex 4 {m}

OS:Surface,
  {36178dad-55a8-4df1-a21e-ff03841a95ed}, !- Handle
  Surface 15,                             !- Name
  Wall,                                   !- Surface Type
  ,                                       !- Construction Name
  {a7705e2c-5410-4dfe-904f-316e07d15ae6}, !- Space Name
  Foundation,                             !- Outside Boundary Condition
  ,                                       !- Outside Boundary Condition Object
  NoSun,                                  !- Sun Exposure
  NoWind,                                 !- Wind Exposure
  ,                                       !- View Factor to Ground
  ,                                       !- Number of Vertices
  0, 0, 0.23495,                          !- X,Y,Z Vertex 1 {m}
  5.3731805262269, 0, 0.23495,            !- X,Y,Z Vertex 2 {m}
  5.3731805262269, 0, -2.20345,           !- X,Y,Z Vertex 3 {m}
  0, 0, -2.20345;                         !- X,Y,Z Vertex 4 {m}

OS:Surface,
  {e39fe9cd-bbea-40f8-a153-8dcc64a0c713}, !- Handle
  Surface 16,                             !- Name
  Wall,                                   !- Surface Type
  ,                                       !- Construction Name
  {a7705e2c-5410-4dfe-904f-316e07d15ae6}, !- Space Name
  Adiabatic,                              !- Outside Boundary Condition
  ,                                       !- Outside Boundary Condition Object
  NoSun,                                  !- Sun Exposure
  NoWind,                                 !- Wind Exposure
  ,                                       !- View Factor to Ground
  ,                                       !- Number of Vertices
  5.3731805262269, 0, 0.23495,            !- X,Y,Z Vertex 1 {m}
  5.3731805262269, -9.67095127110673, 0.23495, !- X,Y,Z Vertex 2 {m}
  5.3731805262269, -9.67095127110673, -2.20345, !- X,Y,Z Vertex 3 {m}
  5.3731805262269, 0, -2.20345;           !- X,Y,Z Vertex 4 {m}

OS:Surface,
  {3b69bda7-545d-4f15-b9dd-970d223d579b}, !- Handle
  Surface 17,                             !- Name
  Wall,                                   !- Surface Type
  ,                                       !- Construction Name
  {a7705e2c-5410-4dfe-904f-316e07d15ae6}, !- Space Name
  Foundation,                             !- Outside Boundary Condition
  ,                                       !- Outside Boundary Condition Object
  NoSun,                                  !- Sun Exposure
  NoWind,                                 !- Wind Exposure
  ,                                       !- View Factor to Ground
  ,                                       !- Number of Vertices
  5.3731805262269, -9.67095127110673, 0.23495, !- X,Y,Z Vertex 1 {m}
  0, -9.67095127110673, 0.23495,          !- X,Y,Z Vertex 2 {m}
  0, -9.67095127110673, -2.20345,         !- X,Y,Z Vertex 3 {m}
  5.3731805262269, -9.67095127110673, -2.20345; !- X,Y,Z Vertex 4 {m}

OS:AdditionalProperties,
  {1fba6a41-ab6a-4b4d-957f-3726f259a3f2}, !- Handle
  {a7705e2c-5410-4dfe-904f-316e07d15ae6}, !- Object Name
  Index,                                  !- Feature Name 1
  Integer,                                !- Feature Data Type 1
  15;                                     !- Feature Value 1

OS:AdditionalProperties,
  {e29e829f-ff81-4b93-ad3b-874d65f2aac6}, !- Handle
  {c51d0c81-1277-4087-90e0-18c6235d97b0}, !- Object Name
  Index,                                  !- Feature Name 1
  Integer,                                !- Feature Data Type 1
  16;                                     !- Feature Value 1

OS:AdditionalProperties,
  {212b8b0f-7318-4e2a-8eeb-aa455d780dd2}, !- Handle
  {822ac406-f43c-4495-a109-e3210d7cc020}, !- Object Name