
OS:Version,
  {81842a67-562e-4b50-8c36-e2a40e0de70d}, !- Handle
  3.7.0;                                  !- Version Identifier

OS:ThermalZone,
  {84bed7e0-d22a-45ca-ab18-b9e78cd5e6d2}, !- Handle
  conditioned space,                      !- Name
  ,                                       !- Multiplier
  ,                                       !- Ceiling Height {m}
  ,                                       !- Volume {m3}
  ,                                       !- Floor Area {m2}
  ,                                       !- Zone Inside Convection Algorithm
  ,                                       !- Zone Outside Convection Algorithm
  ,                                       !- Zone Conditioning Equipment List Name
  {810c70ed-31fa-441e-8009-729c3d0145c0}, !- Zone Air Inlet Port List
  {ee394ebf-abfa-4415-ae2e-ad781dbd9aa3}, !- Zone Air Exhaust Port List
  {dfe6b87e-bed3-4298-b201-1f0eec2cc7d8}, !- Zone Air Node Name
  {dad5f2c7-33f1-4910-806c-e8e5fce00532}, !- Zone Return Air Port List
  ,                                       !- Primary Daylighting Control Name
  ,                                       !- Fraction of Zone Controlled by Primary Daylighting Control
  ,                                       !- Secondary Daylighting Control Name
  ,                                       !- Fraction of Zone Controlled by Secondary Daylighting Control
  ,                                       !- Illuminance Map Name
  ,                                       !- Group Rendering Name
  ,                                       !- Thermostat Name
  No;                                     !- Use Ideal Air Loads

OS:Node,
  {e29a77b8-3cae-4001-840d-282832151234}, !- Handle
  Node 1,                                 !- Name
  {dfe6b87e-bed3-4298-b201-1f0eec2cc7d8}, !- Inlet Port
  ;                                       !- Outlet Port

OS:Connection,
  {dfe6b87e-bed3-4298-b201-1f0eec2cc7d8}, !- Handle
  {84bed7e0-d22a-45ca-ab18-b9e78cd5e6d2}, !- Source Object
  11,                                     !- Outlet Port
  {e29a77b8-3cae-4001-840d-282832151234}, !- Target Object
  2;                                      !- Inlet Port

OS:PortList,
  {810c70ed-31fa-441e-8009-729c3d0145c0}, !- Handle
  {84bed7e0-d22a-45ca-ab18-b9e78cd5e6d2}; !- HVAC Component

OS:PortList,
  {ee394ebf-abfa-4415-ae2e-ad781dbd9aa3}, !- Handle
  {84bed7e0-d22a-45ca-ab18-b9e78cd5e6d2}; !- HVAC Component

OS:PortList,
  {dad5f2c7-33f1-4910-806c-e8e5fce00532}, !- Handle
  {84bed7e0-d22a-45ca-ab18-b9e78cd5e6d2}; !- HVAC Component

OS:Sizing:Zone,
  {f1304537-5a94-4eb0-8ba7-40243b9c8a2c}, !- Handle
  {84bed7e0-d22a-45ca-ab18-b9e78cd5e6d2}, !- Zone or ZoneList Name
  SupplyAirTemperature,                   !- Zone Cooling Design Supply Air Temperature Input Method
  14,                                     !- Zone Cooling Design Supply Air Temperature {C}
  11.11,                                  !- Zone Cooling Design Supply Air Temperature Difference {deltaC}
  SupplyAirTemperature,                   !- Zone Heating Design Supply Air Temperature Input Method
  40,                                     !- Zone Heating Design Supply Air Temperature {C}
  11.11,                                  !- Zone Heating Design Supply Air Temperature Difference {deltaC}
  0.0085,                                 !- Zone Cooling Design Supply Air Humidity Ratio {kg-H2O/kg-air}
  0.008,                                  !- Zone Heating Design Supply Air Humidity Ratio {kg-H2O/kg-air}
  ,                                       !- Zone Heating Sizing Factor
  ,                                       !- Zone Cooling Sizing Factor
  DesignDay,                              !- Cooling Design Air Flow Method
  ,                                       !- Cooling Design Air Flow Rate {m3/s}
  ,                                       !- Cooling Minimum Air Flow per Zone Floor Area {m3/s-m2}
  ,                                       !- Cooling Minimum Air Flow {m3/s}
  ,                                       !- Cooling Minimum Air Flow Fraction
  DesignDay,                              !- Heating Design Air Flow Method
  ,                                       !- Heating Design Air Flow Rate {m3/s}
  ,                                       !- Heating Maximum Air Flow per Zone Floor Area {m3/s-m2}
  ,                                       !- Heating Maximum Air Flow {m3/s}
  ,                                       !- Heating Maximum Air Flow Fraction
  No,                                     !- Account for Dedicated Outdoor Air System
  NeutralSupplyAir,                       !- Dedicated Outdoor Air System Control Strategy
  autosize,                               !- Dedicated Outdoor Air Low Setpoint Temperature for Design {C}
  autosize,                               !- Dedicated Outdoor Air High Setpoint Temperature for Design {C}
  Sensible Load Only No Latent Load,      !- Zone Load Sizing Method
  HumidityRatioDifference,                !- Zone Latent Cooling Design Supply Air Humidity Ratio Input Method
  ,                                       !- Zone Dehumidification Design Supply Air Humidity Ratio {kgWater/kgDryAir}
  0.005,                                  !- Zone Cooling Design Supply Air Humidity Ratio Difference {kgWater/kgDryAir}
  HumidityRatioDifference,                !- Zone Latent Heating Design Supply Air Humidity Ratio Input Method
  ,                                       !- Zone Humidification Design Supply Air Humidity Ratio {kgWater/kgDryAir}
  0.005;                                  !- Zone Humidification Design Supply Air Humidity Ratio Difference {kgWater/kgDryAir}

OS:ZoneHVAC:EquipmentList,
  {ca6d79f2-e1c5-42ae-a526-1b0b885b738a}, !- Handle
  Zone HVAC Equipment List 1,             !- Name
  {84bed7e0-d22a-45ca-ab18-b9e78cd5e6d2}; !- Thermal Zone

OS:ThermalZone,
  {9443f638-5658-4d9c-969b-1b927948ee03}, !- Handle
  garage,                                 !- Name
  ,                                       !- Multiplier
  ,                                       !- Ceiling Height {m}
  ,                                       !- Volume {m3}
  ,                                       !- Floor Area {m2}
  ,                                       !- Zone Inside Convection Algorithm
  ,                                       !- Zone Outside Convection Algorithm
  ,                                       !- Zone Conditioning Equipment List Name
  {2830f9af-37bd-4cc4-adfd-25adede66d88}, !- Zone Air Inlet Port List
  {e08c51c0-a4d9-45d6-8d1c-4d095993c74a}, !- Zone Air Exhaust Port List
  {124219d4-3389-4df5-a5b9-78615132f5a0}, !- Zone Air Node Name
  {9fd33af0-4729-4003-8779-9651bde173ba}, !- Zone Return Air Port List
  ,                                       !- Primary Daylighting Control Name
  ,                                       !- Fraction of Zone Controlled by Primary Daylighting Control
  ,                                       !- Secondary Daylighting Control Name
  ,                                       !- Fraction of Zone Controlled by Secondary Daylighting Control
  ,                                       !- Illuminance Map Name
  ,                                       !- Group Rendering Name
  ,                                       !- Thermostat Name
  No;                                     !- Use Ideal Air Loads

OS:Node,
  {046cd888-ec91-4ce5-bfb1-49eab504cae9}, !- Handle
  Node 2,                                 !- Name
  {124219d4-3389-4df5-a5b9-78615132f5a0}, !- Inlet Port
  ;                                       !- Outlet Port

OS:Connection,
  {124219d4-3389-4df5-a5b9-78615132f5a0}, !- Handle
  {9443f638-5658-4d9c-969b-1b927948ee03}, !- Source Object
  11,                                     !- Outlet Port
  {046cd888-ec91-4ce5-bfb1-49eab504cae9}, !- Target Object
  2;                                      !- Inlet Port

OS:PortList,
  {2830f9af-37bd-4cc4-adfd-25adede66d88}, !- Handle
  {9443f638-5658-4d9c-969b-1b927948ee03}; !- HVAC Component

OS:PortList,
  {e08c51c0-a4d9-45d6-8d1c-4d095993c74a}, !- Handle
  {9443f638-5658-4d9c-969b-1b927948ee03}; !- HVAC Component

OS:PortList,
  {9fd33af0-4729-4003-8779-9651bde173ba}, !- Handle
  {9443f638-5658-4d9c-969b-1b927948ee03}; !- HVAC Component

OS:Sizing:Zone,
  {7f7fc255-d5e6-457b-8636-d060fe30a492}, !- Handle
  {9443f638-5658-4d9c-969b-1b927948ee03}, !- Zone or ZoneList Name
  SupplyAirTemperature,                   !- Zone Cooling Design Supply Air Temperature Input Method
  14,                                     !- Zone Cooling Design Supply Air Temperature {C}
  11.11,                                  !- Zone Cooling Design Supply Air Temperature Difference {deltaC}
  SupplyAirTemperature,                   !- Zone Heating Design Supply Air Temperature Input Method
  40,                                     !- Zone Heating Design Supply Air Temperature {C}
  11.11,                                  !- Zone Heating Design Supply Air Temperature Difference {deltaC}
  0.0085,                                 !- Zone Cooling Design Supply Air Humidity Ratio {kg-H2O/kg-air}
  0.008,                                  !- Zone Heating Design Supply Air Humidity Ratio {kg-H2O/kg-air}
  ,                                       !- Zone Heating Sizing Factor
  ,                                       !- Zone Cooling Sizing Factor
  DesignDay,                              !- Cooling Design Air Flow Method
  ,                                       !- Cooling Design Air Flow Rate {m3/s}
  ,                                       !- Cooling Minimum Air Flow per Zone Floor Area {m3/s-m2}
  ,                                       !- Cooling Minimum Air Flow {m3/s}
  ,                                       !- Cooling Minimum Air Flow Fraction
  DesignDay,                              !- Heating Design Air Flow Method
  ,                                       !- Heating Design Air Flow Rate {m3/s}
  ,                                       !- Heating Maximum Air Flow per Zone Floor Area {m3/s-m2}
  ,                                       !- Heating Maximum Air Flow {m3/s}
  ,                                       !- Heating Maximum Air Flow Fraction
  No,                                     !- Account for Dedicated Outdoor Air System
  NeutralSupplyAir,                       !- Dedicated Outdoor Air System Control Strategy
  autosize,                               !- Dedicated Outdoor Air Low Setpoint Temperature for Design {C}
  autosize,                               !- Dedicated Outdoor Air High Setpoint Temperature for Design {C}
  Sensible Load Only No Latent Load,      !- Zone Load Sizing Method
  HumidityRatioDifference,                !- Zone Latent Cooling Design Supply Air Humidity Ratio Input Method
  ,                                       !- Zone Dehumidification Design Supply Air Humidity Ratio {kgWater/kgDryAir}
  0.005,                                  !- Zone Cooling Design Supply Air Humidity Ratio Difference {kgWater/kgDryAir}
  HumidityRatioDifference,                !- Zone Latent Heating Design Supply Air Humidity Ratio Input Method
  ,                                       !- Zone Humidification Design Supply Air Humidity Ratio {kgWater/kgDryAir}
  0.005;                                  !- Zone Humidification Design Supply Air Humidity Ratio Difference {kgWater/kgDryAir}

OS:ZoneHVAC:EquipmentList,
  {7dad3b65-a913-4017-8248-b0661f54fc62}, !- Handle
  Zone HVAC Equipment List 2,             !- Name
  {9443f638-5658-4d9c-969b-1b927948ee03}; !- Thermal Zone

OS:Space,
  {475d7166-8c1a-4559-be03-d0f35db85399}, !- Handle
  garage 1,                               !- Name
  {c8b95c0f-5fbc-43c8-bc96-e9e5d9b2a8fe}, !- Space Type Name
  ,                                       !- Default Construction Set Name
  ,                                       !- Default Schedule Set Name
  -0,                                     !- Direction of Relative North {deg}
  0,                                      !- X Origin {m}
  0,                                      !- Y Origin {m}
  0.23495,                                !- Z Origin {m}
  ,                                       !- Building Story Name
  {9443f638-5658-4d9c-969b-1b927948ee03}; !- Thermal Zone Name

OS:Surface,
  {f16c824c-5707-41a6-b1f1-48e113cb3703}, !- Handle
  Surface 1,                              !- Name
  Floor,                                  !- Surface Type
  ,                                       !- Construction Name
  {475d7166-8c1a-4559-be03-d0f35db85399}, !- Space Name
  Foundation,                             !- Outside Boundary Condition
  ,                                       !- Outside Boundary Condition Object
  NoSun,                                  !- Sun Exposure
  NoWind,                                 !- Wind Exposure
  ,                                       !- View Factor to Ground
  ,                                       !- Number of Vertices
  7.8621873799149, -3.6576, -2.77555756156289e-17, !- X,Y,Z Vertex 1 {m}
  7.8621873799149, 3.6576, -2.77555756156289e-17, !- X,Y,Z Vertex 2 {m}
  15.1773873799149, 3.6576, -2.77555756156289e-17, !- X,Y,Z Vertex 3 {m}
  15.1773873799149, -3.6576, -2.77555756156289e-17; !- X,Y,Z Vertex 4 {m}

OS:Surface,
  {53aee6ba-33cf-4618-b216-7f1d119c892f}, !- Handle
  Surface 2,                              !- Name
  Wall,                                   !- Surface Type
  ,                                       !- Construction Name
  {475d7166-8c1a-4559-be03-d0f35db85399}, !- Space Name
  Surface,                                !- Outside Boundary Condition
  {650c4110-ffa8-47e2-94a7-46c32d054ff5}, !- Outside Boundary Condition Object
  NoSun,                                  !- Sun Exposure
  NoWind,                                 !- Wind Exposure
  ,                                       !- View Factor to Ground
  ,                                       !- Number of Vertices
  7.8621873799149, 3.6576, 2.4384,        !- X,Y,Z Vertex 1 {m}
  7.8621873799149, 3.6576, -2.77555756156289e-17, !- X,Y,Z Vertex 2 {m}
  7.8621873799149, 0, -2.77555756156289e-17, !- X,Y,Z Vertex 3 {m}
  7.8621873799149, 0, 2.4384;             !- X,Y,Z Vertex 4 {m}

OS:Surface,
  {7c244b09-083a-47d3-abf2-66b945e548e2}, !- Handle
  Surface 3,                              !- Name
  Wall,                                   !- Surface Type
  ,                                       !- Construction Name
  {475d7166-8c1a-4559-be03-d0f35db85399}, !- Space Name
  Surface,                                !- Outside Boundary Condition
  {66f36b0d-d624-4979-99cb-8aa76d5ea69f}, !- Outside Boundary Condition Object
  NoSun,                                  !- Sun Exposure
  NoWind,                                 !- Wind Exposure
  ,                                       !- View Factor to Ground
  ,                                       !- Number of Vertices
  15.1773873799149, 3.6576, 2.4384,       !- X,Y,Z Vertex 1 {m}
  15.1773873799149, 3.6576, -2.77555756156289e-17, !- X,Y,Z Vertex 2 {m}
  7.8621873799149, 3.6576, -2.77555756156289e-17, !- X,Y,Z Vertex 3 {m}
  7.8621873799149, 3.6576, 2.4384;        !- X,Y,Z Vertex 4 {m}

OS:Surface,
  {84db24bd-6c6d-47c8-81d2-b7a6d10ab824}, !- Handle
  Surface 4,                              !- Name
  Wall,                                   !- Surface Type
  ,                                       !- Construction Name
  {475d7166-8c1a-4559-be03-d0f35db85399}, !- Space Name
  Outdoors,                               !- Outside Boundary Condition
  ,                                       !- Outside Boundary Condition Object
  SunExposed,                             !- Sun Exposure
  WindExposed,                            !- Wind Exposure
  ,                                       !- View Factor to Ground
  ,                                       !- Number of Vertices
  15.1773873799149, 3.6576, 2.4384,       !- X,Y,Z Vertex 1 {m}
  15.1773873799149, -3.6576, 2.4384,      !- X,Y,Z Vertex 2 {m}
  15.1773873799149, -3.6576, -2.77555756156289e-17, !- X,Y,Z Vertex 3 {m}
  15.1773873799149, 3.6576, -2.77555756156289e-17; !- X,Y,Z Vertex 4 {m}

OS:Surface,
  {861d046a-4151-4965-97c6-8701d6b0ad73}, !- Handle
  Surface 5,                              !- Name
  Wall,                                   !- Surface Type
  ,                                       !- Construction Name
  {475d7166-8c1a-4559-be03-d0f35db85399}, !- Space Name
  Outdoors,                               !- Outside Boundary Condition
  ,                                       !- Outside Boundary Condition Object
  SunExposed,                             !- Sun Exposure
  WindExposed,                            !- Wind Exposure
  ,                                       !- View Factor to Ground
  ,                                       !- Number of Vertices
  15.1773873799149, -3.6576, 2.4384,      !- X,Y,Z Vertex 1 {m}
  7.8621873799149, -3.6576, 2.4384,       !- X,Y,Z Vertex 2 {m}
  7.8621873799149, -3.6576, -2.77555756156289e-17, !- X,Y,Z Vertex 3 {m}
  15.1773873799149, -3.6576, -2.77555756156289e-17; !- X,Y,Z Vertex 4 {m}

OS:Surface,
  {421711e9-8dda-4416-a93d-78f460ae545c}, !- Handle
  Surface 6,                              !- Name
  RoofCeiling,                            !- Surface Type
  ,                                       !- Construction Name
  {475d7166-8c1a-4559-be03-d0f35db85399}, !- Space Name
  Surface,                                !- Outside Boundary Condition
  {8965fa44-7265-460b-ab2d-c9a4fd0bb16a}, !- Outside Boundary Condition Object
  NoSun,                                  !- Sun Exposure
  NoWind,                                 !- Wind Exposure
  ,                                       !- View Factor to Ground
  ,                                       !- Number of Vertices
  15.1773873799149, 0, 2.4384,            !- X,Y,Z Vertex 1 {m}
  15.1773873799149, 3.6576, 2.4384,       !- X,Y,Z Vertex 2 {m}
  7.8621873799149, 3.6576, 2.4384,        !- X,Y,Z Vertex 3 {m}
  7.8621873799149, 0, 2.4384;             !- X,Y,Z Vertex 4 {m}

OS:AdditionalProperties,
  {b9b8f2f6-c686-42a7-9ccb-800ca943179e}, !- Handle
  {475d7166-8c1a-4559-be03-d0f35db85399}, !- Object Name
  Index,                                  !- Feature Name 1
  Integer,                                !- Feature Data Type 1
  1;                                      !- Feature Value 1

OS:AdditionalProperties,
  {97f67814-0545-47f3-b38a-30e286cefc00}, !- Handle
  {421711e9-8dda-4416-a93d-78f460ae545c}, !- Object Name
  Index,                                  !- Feature Name 1
  Integer,                                !- Feature Data Type 1
  7;                                      !- Feature Value 1

OS:AdditionalProperties,
  {1b7787e9-43ed-4ff2-a0ac-57eae51b6126}, !- Handle
  {f16c824c-5707-41a6-b1f1-48e113cb3703}, !- Object Name
  Index,                                  !- Feature Name 1
  Integer,                                !- Feature Data Type 1
  2;                                      !- Feature Value 1

OS:AdditionalProperties,
  {17940a75-2bd4-4d1a-a7d1-80ad3b70c224}, !- Handle
  {53aee6ba-33cf-4618-b216-7f1d119c892f}, !- Object Name
  Index,                                  !- Feature Name 1
  Integer,                                !- Feature Data Type 1
  6;                                      !- Feature Value 1

OS:AdditionalProperties,
  {cc1678fc-4035-4932-90e1-0942ef5b21d4}, !- Handle
  {7c244b09-083a-47d3-abf2-66b945e548e2}, !- Object Name
  Index,                                  !- Feature Name 1
  Integer,                                !- Feature Data Type 1
  3;                                      !- Feature Value 1

OS:AdditionalProperties,
  {759586b8-cf03-4bb1-be21-2e477dc65e31}, !- Handle
  {861d046a-4151-4965-97c6-8701d6b0ad73}, !- Object Name
  Index,                                  !- Feature Name 1
  Integer,                                !- Feature Data Type 1
  5;                                      !- Feature Value 1

OS:AdditionalProperties,
  {55ba680f-26a7-4686-a4cc-7d07ce8d3589}, !- Handle
  {84db24bd-6c6d-47c8-81d2-b7a6d10ab824}, !- Object Name
  Index,                                  !- Feature Name 1
  Integer,                                !- Feature Data Type 1
  4;                                      !- Feature Value 1

OS:SpaceType,
  {c8b95c0f-5fbc-43c8-bc96-e9e5d9b2a8fe}, !- Handle
  Space Type 1,                           !- Name
  ,                                       !- Default Construction Set Name
  ,                                       !- Default Schedule Set Name
  ,                                       !- Group Rendering Name
  ,                                       !- Design Specification Outdoor Air Object Name
  ,                                       !- Standards Template
  ,                                       !- Standards Building Type
  garage;                                 !- Standards Space Type

OS:Space,
  {caedbd8e-afc2-4b2c-9930-90fde8ef103e}, !- Handle
  conditioned space 1,                    !- Name
  {c5750cdb-51b0-440b-9b72-5ff800090345}, !- Space Type Name
  ,                                       !- Default Construction Set Name
  ,                                       !- Default Schedule Set Name
  -0,                                     !- Direction of Relative North {deg}
  0,                                      !- X Origin {m}
  0,                                      !- Y Origin {m}
  0.23495,                                !- Z Origin {m}
  ,                                       !- Building Story Name
  {84bed7e0-d22a-45ca-ab18-b9e78cd5e6d2}; !- Thermal Zone Name

OS:Surface,
  {395587aa-2436-452d-89f1-5976d445eb08}, !- Handle
  Surface 7,                              !- Name
  Floor,                                  !- Surface Type
  ,                                       !- Construction Name
  {caedbd8e-afc2-4b2c-9930-90fde8ef103e}, !- Space Name
  Surface,                                !- Outside Boundary Condition
  {478b60ab-9111-47f7-aa7c-d9bcd387cc53}, !- Outside Boundary Condition Object
  NoSun,                                  !- Sun Exposure
  NoWind,                                 !- Wind Exposure
  ,                                       !- View Factor to Ground
  ,                                       !- Number of Vertices
  15.1773873799149, 8.4318818777305, -2.77555756156289e-17, !- X,Y,Z Vertex 1 {m}
  15.1773873799149, 3.6576, -2.77555756156289e-17, !- X,Y,Z Vertex 2 {m}
  7.8621873799149, 3.6576, -2.77555756156289e-17, !- X,Y,Z Vertex 3 {m}
  7.8621873799149, 0, -2.77555756156289e-17, !- X,Y,Z Vertex 4 {m}
  0, 0, -2.77555756156289e-17,            !- X,Y,Z Vertex 5 {m}
  0, 8.4318818777305, -2.77555756156289e-17; !- X,Y,Z Vertex 6 {m}

OS:Surface,
  {235d683d-a5c1-40a4-9c6b-d6cec84b8571}, !- Handle
  Surface 8,                              !- Name
  Wall,                                   !- Surface Type
  ,                                       !- Construction Name
  {caedbd8e-afc2-4b2c-9930-90fde8ef103e}, !- Space Name
  Outdoors,                               !- Outside Boundary Condition
  ,                                       !- Outside Boundary Condition Object
  SunExposed,                             !- Sun Exposure
  WindExposed,                            !- Wind Exposure
  ,                                       !- View Factor to Ground
  ,                                       !- Number of Vertices
  0, 0, 2.4384,                           !- X,Y,Z Vertex 1 {m}
  0, 8.4318818777305, 2.4384,             !- X,Y,Z Vertex 2 {m}
  0, 8.4318818777305, -2.77555756156289e-17, !- X,Y,Z Vertex 3 {m}
  0, 0, -2.77555756156289e-17;            !- X,Y,Z Vertex 4 {m}

OS:Surface,
  {58635c9a-e52d-4711-82d7-efdf3ed63e19}, !- Handle
  Surface 9,                              !- Name
  Wall,                                   !- Surface Type
  ,                                       !- Construction Name
  {caedbd8e-afc2-4b2c-9930-90fde8ef103e}, !- Space Name
  Outdoors,                               !- Outside Boundary Condition
  ,                                       !- Outside Boundary Condition Object
  SunExposed,                             !- Sun Exposure
  WindExposed,                            !- Wind Exposure
  ,                                       !- View Factor to Ground
  ,                                       !- Number of Vertices
  0, 8.4318818777305, 2.4384,             !- X,Y,Z Vertex 1 {m}
  15.1773873799149, 8.4318818777305, 2.4384, !- X,Y,Z Vertex 2 {m}
  15.1773873799149, 8.4318818777305, -2.77555756156289e-17, !- X,Y,Z Vertex 3 {m}
  0, 8.4318818777305, -2.77555756156289e-17; !- X,Y,Z Vertex 4 {m}

OS:Surface,
  {82388575-6ae1-4640-a50d-141adac32918}, !- Handle
  Surface 10,                             !- Name
  Wall,                                   !- Surface Type
  ,                                       !- Construction Name
  {caedbd8e-afc2-4b2c-9930-90fde8ef103e}, !- Space Name
  Outdoors,                               !- Outside Boundary Condition
  ,                                       !- Outside Boundary Condition Object
  SunExposed,                             !- Sun Exposure
  WindExposed,                            !- Wind Exposure
  ,                                       !- View Factor to Ground
  ,                                       !- Number of Vertices
  15.1773873799149, 8.4318818777305, 2.4384, !- X,Y,Z Vertex 1 {m}
  15.1773873799149, 3.6576, 2.4384,       !- X,Y,Z Vertex 2 {m}
  15.1773873799149, 3.6576, -2.77555756156289e-17, !- X,Y,Z Vertex 3 {m}
  15.1773873799149, 8.4318818777305, -2.77555756156289e-17; !- X,Y,Z Vertex 4 {m}

OS:Surface,
  {66f36b0d-d624-4979-99cb-8aa76d5ea69f}, !- Handle
  Surface 11,                             !- Name
  Wall,                                   !- Surface Type
  ,                                       !- Construction Name
  {caedbd8e-afc2-4b2c-9930-90fde8ef103e}, !- Space Name
  Surface,                                !- Outside Boundary Condition
  {7c244b09-083a-47d3-abf2-66b945e548e2}, !- Outside Boundary Condition Object
  NoSun,                                  !- Sun Exposure
  NoWind,                                 !- Wind Exposure
  ,                                       !- View Factor to Ground
  ,                                       !- Number of Vertices
  7.8621873799149, 3.6576, 2.4384,        !- X,Y,Z Vertex 1 {m}
  7.8621873799149, 3.6576, -2.77555756156289e-17, !- X,Y,Z Vertex 2 {m}
  15.1773873799149, 3.6576, -2.77555756156289e-17, !- X,Y,Z Vertex 3 {m}
  15.1773873799149, 3.6576, 2.4384;       !- X,Y,Z Vertex 4 {m}

OS:Surface,
  {650c4110-ffa8-47e2-94a7-46c32d054ff5}, !- Handle
  Surface 12,                             !- Name
  Wall,                                   !- Surface Type
  ,                                       !- Construction Name
  {caedbd8e-afc2-4b2c-9930-90fde8ef103e}, !- Space Name
  Surface,                                !- Outside Boundary Condition
  {53aee6ba-33cf-4618-b216-7f1d119c892f}, !- Outside Boundary Condition Object
  NoSun,                                  !- Sun Exposure
  NoWind,                                 !- Wind Exposure
  ,                                       !- View Factor to Ground
  ,                                       !- Number of Vertices
  7.8621873799149, 0, 2.4384,             !- X,Y,Z Vertex 1 {m}
  7.8621873799149, 0, -2.77555756156289e-17, !- X,Y,Z Vertex 2 {m}
  7.8621873799149, 3.6576, -2.77555756156289e-17, !- X,Y,Z Vertex 3 {m}
  7.8621873799149, 3.6576, 2.4384;        !- X,Y,Z Vertex 4 {m}

OS:Surface,
  {77ce43d0-d5a2-488b-9501-5662b40c14c1}, !- Handle
  Surface 13,                             !- Name
  Wall,                                   !- Surface Type
  ,                                       !- Construction Name
  {caedbd8e-afc2-4b2c-9930-90fde8ef103e}, !- Space Name
  Outdoors,                               !- Outside Boundary Condition
  ,                                       !- Outside Boundary Condition Object
  SunExposed,                             !- Sun Exposure
  WindExposed,                            !- Wind Exposure
  ,                                       !- View Factor to Ground
  ,                                       !- Number of Vertices
  7.8621873799149, 0, -2.77555756156289e-17, !- X,Y,Z Vertex 1 {m}
  7.8621873799149, 0, 2.4384,             !- X,Y,Z Vertex 2 {m}
  1.04865714285714, 0, 2.4384,            !- X,Y,Z Vertex 3 {m}
  1.04865714285714, 0, 4.26991775270835e-16; !- X,Y,Z Vertex 4 {m}

OS:Surface,
  {95af121d-4142-4194-a09f-e9576cb8d675}, !- Handle
  Surface 14,                             !- Name
  RoofCeiling,                            !- Surface Type
  ,                                       !- Construction Name
  {caedbd8e-afc2-4b2c-9930-90fde8ef103e}, !- Space Name
  Surface,                                !- Outside Boundary Condition
  {29ba7341-d3a8-4d42-bcec-23c72231c085}, !- Outside Boundary Condition Object
  NoSun,                                  !- Sun Exposure
  NoWind,                                 !- Wind Exposure
  ,                                       !- View Factor to Ground
  ,                                       !- Number of Vertices
  7.8621873799149, 0, 2.4384,             !- X,Y,Z Vertex 1 {m}
  7.8621873799149, 3.6576, 2.4384,        !- X,Y,Z Vertex 2 {m}
  15.1773873799149, 3.6576, 2.4384,       !- X,Y,Z Vertex 3 {m}
  15.1773873799149, 8.4318818777305, 2.4384, !- X,Y,Z Vertex 4 {m}
  0, 8.4318818777305, 2.4384,             !- X,Y,Z Vertex 5 {m}
  0, 0, 2.4384;                           !- X,Y,Z Vertex 6 {m}

OS:AdditionalProperties,
  {0098c5ee-47ff-491d-a1dd-45323d92ba19}, !- Handle
  {caedbd8e-afc2-4b2c-9930-90fde8ef103e}, !- Object Name
  Index,                                  !- Feature Name 1
  Integer,                                !- Feature Data Type 1
  8;                                      !- Feature Value 1

OS:AdditionalProperties,
  {41653266-3a9e-4d52-8cec-261ff7298feb}, !- Handle
  {395587aa-2436-452d-89f1-5976d445eb08}, !- Object Name