
OS:Version,
  {a2cdeb35-849d-48ec-a464-2fe2ab95bc0f}, !- Handle
  3.7.0;                                  !- Version Identifier

OS:ThermalZone,
  {9ce740fc-7ae4-4543-8a08-83b7b399fdcb}, !- Handle
  conditioned space,                      !- Name
  ,                                       !- Multiplier
  ,                                       !- Ceiling Height {m}
  ,                                       !- Volume {m3}
  ,                                       !- Floor Area {m2}
  ,                                       !- Zone Inside Convection Algorithm
  ,                                       !- Zone Outside Convection Algorithm
  ,                                       !- Zone Conditioning Equipment List Name
  {730b928e-7e2e-46cd-ae3b-e051ba5f032c}, !- Zone Air Inlet Port List
  {59d8795f-8560-41a5-b618-de7590a2de49}, !- Zone Air Exhaust Port List
  {b342d467-aa0c-49fb-8fcc-bc739ec14c1f}, !- Zone Air Node Name
  {6005ac72-2e39-4978-b529-7f5c8bb8b90b}, !- Zone Return Air Port List
  ,                                       !- Primary Daylighting Control Name
  ,                                       !- Fraction of Zone Controlled by Primary Daylighting Control
  ,                                       !- Secondary Daylighting Control Name
  ,                                       !- Fraction of Zone Controlled by Secondary Daylighting Control
  ,                                       !- Illuminance Map Name
  ,                                       !- Group Rendering Name
  ,                                       !- Thermostat Name
  No;                                     !- Use Ideal Air Loads

OS:Node,
  {adf9c7d0-cdf5-4726-ab30-a35009d1c37d}, !- Handle
  Node 1,                                 !- Name
  {b342d467-aa0c-49fb-8fcc-bc739ec14c1f}, !- Inlet Port
  ;                                       !- Outlet Port

OS:Connection,
  {b342d467-aa0c-49fb-8fcc-bc739ec14c1f}, !- Handle
  {9ce740fc-7ae4-4543-8a08-83b7b399fdcb}, !- Source Object
  11,                                     !- Outlet Port
  {adf9c7d0-cdf5-4726-ab30-a35009d1c37d}, !- Target Object
  2;                                      !- Inlet Port

OS:PortList,
  {730b928e-7e2e-46cd-ae3b-e051ba5f032c}, !- Handle
  {9ce740fc-7ae4-4543-8a08-83b7b399fdcb}; !- HVAC Component

OS:PortList,
  {59d8795f-8560-41a5-b618-de7590a2de49}, !- Handle
  {9ce740fc-7ae4-4543-8a08-83b7b399fdcb}; !- HVAC Component

OS:PortList,
  {6005ac72-2e39-4978-b529-7f5c8bb8b90b}, !- Handle
  {9ce740fc-7ae4-4543-8a08-83b7b399fdcb}; !- HVAC Component

OS:Sizing:Zone,
  {72717aab-00ef-47eb-a8d2-65ba22a7acf1}, !- Handle
  {9ce740fc-7ae4-4543-8a08-83b7b399fdcb}, !- Zone or ZoneList Name
  SupplyAirTemperature,                   !- Zone Cooling Design Supply Air Temperature Input Method
  14,                                     !- Zone Cooling Design Supply Air Temperature {C}
  11.11,                                  !- Zone Cooling Design Supply Air Temperature Difference {deltaC}
  SupplyAirTemperature,                   !- Zone Heating Design Supply Air Temperature Input Method
  40,                                     !- Zone Heating Design Supply Air Temperature {C}
  11.11,                                  !- Zone Heating Design Supply Air Temperature Difference {deltaC}
  0.0085,                                 !- Zone Cooling Design Supply Air Humidity Ratio {kg-H2O/kg-air}
  0.008,                                  !- Zone Heating Design Supply Air Humidity Ratio {kg-H2O/kg-air}
  ,                                       !- Zone Heating Sizing Factor
  ,                                       !- Zone Cooling Sizing Factor
  DesignDay,                              !- Cooling Design Air Flow Method
  ,                                       !- Cooling Design Air Flow Rate {m3/s}
  ,                                       !- Cooling Minimum Air Flow per Zone Floor Area {m3/s-m2}
  ,                                       !- Cooling Minimum Air Flow {m3/s}
  ,                                       !- Cooling Minimum Air Flow Fraction
  DesignDay,                              !- Heating Design Air Flow Method
  ,                                       !- Heating Design Air Flow Rate {m3/s}
  ,                                       !- Heating Maximum Air Flow per Zone Floor Area {m3/s-m2}
  ,                                       !- Heating Maximum Air Flow {m3/s}
  ,                                       !- Heating Maximum Air Flow Fraction
  No,                                     !- Account for Dedicated Outdoor Air System
  NeutralSupplyAir,                       !- Dedicated Outdoor Air System Control Strategy
  autosize,                               !- Dedicated Outdoor Air Low Setpoint Temperature for Design {C}
  autosize,                               !- Dedicated Outdoor Air High Setpoint Temperature for Design {C}
  Sensible Load Only No Latent Load,      !- Zone Load Sizing Method
  HumidityRatioDifference,                !- Zone Latent Cooling Design Supply Air Humidity Ratio Input Method
  ,                                       !- Zone Dehumidification Design Supply Air Humidity Ratio {kgWater/kgDryAir}
  0.005,                                  !- Zone Cooling Design Supply Air Humidity Ratio Difference {kgWater/kgDryAir}
  HumidityRatioDifference,                !- Zone Latent Heating Design Supply Air Humidity Ratio Input Method
  ,                                       !- Zone Humidification Design Supply Air Humidity Ratio {kgWater/kgDryAir}
  0.005;                                  !- Zone Humidification Design Supply Air Humidity Ratio Difference {kgWater/kgDryAir}

OS:ZoneHVAC:EquipmentList,
  {d73e40c3-8568-465a-ad16-fab0f39f336d}, !- Handle
  Zone HVAC Equipment List 1,             !- Name
  {9ce740fc-7ae4-4543-8a08-83b7b399fdcb}; !- Thermal Zone

OS:Space,
  {13b21130-69be-4b2c-8433-07396a23ae96}, !- Handle
  conditioned space 1,                    !- Name
  {f7e1d59c-14f9-4d63-8ec9-2e3602b3d3e3}, !- Space Type Name
  ,                                       !- Default Construction Set Name
  ,                                       !- Default Schedule Set Name
  ,                                       !- Direction of Relative North {deg}
  ,                                       !- X Origin {m}
  ,                                       !- Y Origin {m}
  ,                                       !- Z Origin {m}
  ,                                       !- Building Story Name
  {9ce740fc-7ae4-4543-8a08-83b7b399fdcb}; !- Thermal Zone Name

OS:Surface,
  {bdd06605-a98a-4eb8-937d-4fd61bddfb5b}, !- Handle
  Surface 1,                              !- Name
  Floor,                                  !- Surface Type
  ,                                       !- Construction Name
  {13b21130-69be-4b2c-8433-07396a23ae96}, !- Space Name
  Adiabatic,                              !- Outside Boundary Condition
  ,                                       !- Outside Boundary Condition Object
  NoSun,                                  !- Sun Exposure
  NoWind,                                 !- Wind Exposure
  ,                                       !- View Factor to Ground
  ,                                       !- Number of Vertices
  0, -13.7944686069043, 0,                !- X,Y,Z Vertex 1 {m}
  0, 0, 0,                                !- X,Y,Z Vertex 2 {m}
  7.66420675799603, 0, 0,                 !- X,Y,Z Vertex 3 {m}
  7.66420675799603, -13.7944686069043, 0; !- X,Y,Z Vertex 4 {m}

OS:Surface,
  {a46a31a0-da3a-4511-b4ce-9bfe7bd7a9d8}, !- Handle
  Surface 2,                              !- Name
  Wall,                                   !- Surface Type
  ,                                       !- Construction Name
  {13b21130-69be-4b2c-8433-07396a23ae96}, !- Space Name
  Adiabatic,                              !- Outside Boundary Condition
  ,                                       !- Outside Boundary Condition Object
  NoSun,                                  !- Sun Exposure
  NoWind,                                 !- Wind Exposure
  ,                                       !- View Factor to Ground
  ,                                       !- Number of Vertices
  0, -13.7944686069043, 2.4384,           !- X,Y,Z Vertex 1 {m}
  0, 0, 2.4384,                           !- X,Y,Z Vertex 2 {m}
  0, 0, 0,                                !- X,Y,Z Vertex 3 {m}
  0, -13.7944686069043, 0;                !- X,Y,Z Vertex 4 {m}

OS:Surface,
  {3a36fd40-d8b1-486b-92c1-748c05b180da}, !- Handle
  Surface 3,                              !- Name
  Wall,                                   !- Surface Type
  ,                                       !- Construction Name
  {13b21130-69be-4b2c-8433-07396a23ae96}, !- Space Name
  Outdoors,                               !- Outside Boundary Condition
  ,                                       !- Outside Boundary Condition Object
  SunExposed,                             !- Sun Exposure
  WindExposed,                            !- Wind Exposure
  ,                                       !- View Factor to Ground
  ,                                       !- Number of Vertices
  0, 0, 2.4384,                           !- X,Y,Z Vertex 1 {m}
  7.66420675799603, 0, 2.4384,            !- X,Y,Z Vertex 2 {m}
  7.66420675799603, 0, 0,                 !- X,Y,Z Vertex 3 {m}
  0, 0, 0;                                !- X,Y,Z Vertex 4 {m}

OS:Surface,
  {7cf96706-7ad4-456a-809a-1df5049e1a99}, !- Handle
  Surface 4,                              !- Name
  Wall,                                   !- Surface Type
  ,                                       !- Construction Name
  {13b21130-69be-4b2c-8433-07396a23ae96}, !- Space Name
  Outdoors,                               !- Outside Boundary Condition
  ,                                       !- Outside Boundary Condition Object
  SunExposed,                             !- Sun Exposure
  WindExposed,                            !- Wind Exposure
  ,                                       !- View Factor to Ground
  ,                                       !- Number of Vertices
  7.66420675799603, 0, 2.4384,            !- X,Y,Z Vertex 1 {m}
  7.66420675799603, -13.7944686069043, 2.4384, !- X,Y,Z Vertex 2 {m}
  7.66420675799603, -13.7944686069043, 0, !- X,Y,Z Vertex 3 {m}
  7.66420675799603, 0, 0;                 !- X,Y,Z Vertex 4 {m}

OS:Surface,
  {61ab7fca-4f41-40c9-b2e3-edbc9bcb31e1}, !- Handle
  Surface 5,                              !- Name
  Wall,                                   !- Surface Type
  ,                                       !- Construction Name
  {13b21130-69be-4b2c-8433-07396a23ae96}, !- Space Name
  Outdoors,                               !- Outside Boundary Condition
  ,                                       !- Outside Boundary Condition Object
  SunExposed,                             !- Sun Exposure
  WindExposed,                            !- Wind Exposure
  ,                                       !- View Factor to Ground
  ,                                       !- Number of Vertices
  7.66420675799603, -13.7944686069043, 0, !- X,Y,Z Vertex 1 {m}
  7.66420675799603, -13.7944686069043, 2.4384, !- X,Y,Z Vertex 2 {m}
  1.04865714285714, -13.7944686069043, 2.4384, !- X,Y,Z Vertex 3 {m}
  1.04865714285714, -13.7944686069043, 0; !- X,Y,Z Vertex 4 {m}

OS:Surface,
  {a763863d-cd9b-401a-ad81-241fa57015b3}, !- Handle
  Surface 6,                              !- Name
  RoofCeiling,                            !- Surface Type
  ,                                       !- Construction Name
  {13b21130-69be-4b2c-8433-07396a23ae96}, !- Space Name
  Outdoors,                               !- Outside Boundary Condition
  ,                                       !- Outside Boundary Condition Object
  SunExposed,                             !- Sun Exposure
  WindExposed,                            !- Wind Exposure
  ,                                       !- View Factor to Ground
  ,                                       !- Number of Vertices
  7.66420675799603, -13.7944686069043, 2.4384, !- X,Y,Z Vertex 1 {m}
  7.66420675799603, 0, 2.4384,            !- X,Y,Z Vertex 2 {m}
  0, 0, 2.4384,                           !- X,Y,Z Vertex 3 {m}
  0, -13.7944686069043, 2.4384;           !- X,Y,Z Vertex 4 {m}

OS:AdditionalProperties,
  {cd3325f7-04d5-4d27-b2b6-6d8f1a164b5d}, !- Handle
  {13b21130-69be-4b2c-8433-07396a23ae96}, !- Object Name
  Index,                                  !- Feature Name 1
  Integer,                                !- Feature Data Type 1
  1;                                      !- Feature Value 1

OS:AdditionalProperties,
  {759b3248-f017-4005-98ee-ac158aa8b666}, !- Handle
  {bdd06605-a98a-4eb8-937d-4fd61bddfb5b}, !- Object Name
  Index,                                  !- Feature Name 1
  Integer,                                !- Feature Data Type 1
  2;                                      !- Feature Value 1

OS:AdditionalProperties,
  {97e004b2-22b5-4c30-b313-befaa317c604}, !- Handle
  {a46a31a0-da3a-4511-b4ce-9bfe7bd7a9d8}, !- Object Name
  Index,                                  !- Feature Name 1
  Integer,                                !- Feature Data Type 1
  6;                                      !- Feature Value 1

OS:AdditionalProperties,
  {db5bb91c-ce40-4ef8-a715-aecacc38837b}, !- Handle
  {3a36fd40-d8b1-486b-92c1-748c05b180da}, !- Object Name
  Index,                                  !- Feature Name 1
  Integer,                                !- Feature Data Type 1
  3;                                      !- Feature Value 1

OS:AdditionalProperties,
  {be29150e-89f0-4c09-ab41-f1e65cef43dc}, !- Handle
  {7cf96706-7ad4-456a-809a-1df5049e1a99}, !- Object Name
  Index,                                  !- Feature Name 1
  Integer,                                !- Feature Data Type 1
  4;                                      !- Feature Value 1

OS:AdditionalProperties,
  {06631253-0029-4403-876c-887b33a44611}, !- Handle
  {61ab7fca-4f41-40c9-b2e3-edbc9bcb31e1}, !- Object Name
  Index,                                  !- Feature Name 1
  Integer,                                !- Feature Data Type 1
  5;                                      !- Feature Value 1

OS:AdditionalProperties,
  {67133dde-2d50-4c42-8284-ccddebfca711}, !- Handle
  {a763863d-cd9b-401a-ad81-241fa57015b3}, !- Object Name
  Index,                                  !- Feature Name 1
  Integer,                                !- Feature Data Type 1
  7;                                      !- Feature Value 1

OS:SpaceType,
  {f7e1d59c-14f9-4d63-8ec9-2e3602b3d3e3}, !- Handle
  Space Type 1,                           !- Name
  ,                                       !- Default Construction Set Name
  ,                                       !- Default Schedule Set Name
  ,                                       !- Group Rendering Name
  ,                                       !- Design Specification Outdoor Air Object Name
  ,                                       !- Standards Template
  ,                                       !- Standards Building Type
  conditioned space;                      !- Standards Space Type

OS:SubSurface,
  {30fefb7d-b6b1-45de-8ee8-14babd1bf6b7}, !- Handle
  Surface 5 - Door,                       !- Name
  Door,                                   !- Sub Surface Type
  ,                                       !- Construction Name
  {3ba2e9e9-60e3-4f08-97ad-a47ebb50a58a}, !- Surface Name
  ,                                       !- Outside Boundary Condition Object
  ,                                       !- View Factor to Ground
  ,                                       !- Frame and Divider Name
  ,                                       !- Multiplier
  ,                                       !- Number of Vertices
  0.1524, -13.794467712, 2.1336,          !- X,Y,Z Vertex 1 {m}
  0.1524, -13.794467712, 0,               !- X,Y,Z Vertex 2 {m}
  1.02325714285714, -13.794467712, 0,     !- X,Y,Z Vertex 3 {m}
  1.02325714285714, -13.794467712, 2.1336; !- X,Y,Z Vertex 4 {m}

OS:AdditionalProperties,
  {28a933a0-9b7c-415c-82e5-275e5e81b307}, !- Handle
  {30fefb7d-b6b1-45de-8ee8-14babd1bf6b7}, !- Object Name
  Index,                                  !- Feature Name 1
  Integer,                                !- Feature Data Type 1
  8;                                      !- Feature Value 1

OS:Surface,
  {3ba2e9e9-60e3-4f08-97ad-a47ebb50a58a}, !- Handle
  Surface 7,                              !- Name
  Wall,                                   !- Surface Type
  ,                                       !- Construction Name
  {13b21130-69be-4b2c-8433-07396a23ae96}, !- Space Name
  Outdoors,                               !- Outside Boundary Condition
  ,                                       !- Outside Boundary Condition Object
  SunExposed,                             !- Sun Exposure
  WindExposed,                            !- Wind Exposure
  ,                                       !- View Factor to Ground
  ,                                       !- Number of Vertices
  1.04865714285714, -13.7944686069043, 2.4384, !- X,Y,Z Vertex 1 {m}
  0.127, -13.7944686069043, 2.4384,       !- X,Y,Z Vertex 2 {m}
  0.127, -13.7944686069043, 0,            !- X,Y,Z Vertex 3 {m}
  1.04865714285714, -13.7944686069043, 0; !- X,Y,Z Vertex 4 {m}

OS:AdditionalProperties,
  {2fc1cf31-4a1a-4df7-8ac3-ae0c938b70d4}, !- Handle
  {3ba2e9e9-60e3-4f08-97ad-a47ebb50a58a}, !- Object Name
  Index,                                  !- Feature Name 1
  Integer,                                !- Feature Data Type 1
  5;                                      !- Feature Value 1

OS:Surface,
  {d254500e-8960-4c64-b4d2-f88eb58b82d2}, !- Handle
  Surface 8,                              !- Name
  Wall,                                   !- Surface Type
  ,                                       !- Construction Name
  {13b21130-69be-4b2c-8433-07396a23ae96}, !- Space Name
  Outdoors,                               !- Outside Boundary Condition
  ,                                       !- Outside Boundary Condition Object
  SunExposed,                             !- Sun Exposure
  WindExposed,                            !- Wind Exposure
  ,                                       !- View Factor to Ground
  ,                                       !- Number of Vertices
  0.127, -13.7944686069043, 2.4384,       !- X,Y,Z Vertex 1 {m}
  0, -13.7944686069043, 2.4384,           !- X,Y,Z Vertex 2 {m}
  0, -13.7944686069043, 0,                !- X,Y,Z Vertex 3 {m}
  0.127, -13.7944686069043, 0;            !- X,Y,Z Vertex 4 {m}

OS:AdditionalProperties,
  {28833097-651e-426d-82c2-3e78426a19ad}, !- Handle
  {d254500e-8960-4c64-b4d2-f88eb58b82d2}, !- Object Name
  Index,                                  !- Feature Name 1
  Integer,                                !- Feature Data Type 1
  5;                                      !- Feature Value 1

OS:SubSurface,
  {07fc2468-bc1e-4e6c-8bb2-e553c55703aa}, !- Handle
  Surface 3 - Window 1,                   !- Name
  FixedWindow,                            !- Sub Surface Type
  ,                                       !- Construction Name
  {3a36fd40-d8b1-486b-92c1-748c05b180da}, !- Surface Name
  ,                                       !- Outside Boundary Condition Object
  ,                                       !- View Factor to Ground
  ,                                       !- Frame and Divider Name
  ,                                       !- Multiplier
  ,                                       !- Number of Vertices
  4.65687074587937, 0, 2.1336,            !- X,Y,Z Vertex 1 {m}
  4.65687074587937, 0, 1.07481589571081,  !- X,Y,Z Vertex 2 {m}
  3.862584096, 0, 1.07481589571081,       !- X,Y,Z Vertex 3 {m}
  3.862584096, 0, 2.1336;                 !- X,Y,Z Vertex 4 {m}

OS:AdditionalProperties,
  {59d5e7c1-7237-495e-9dba-61216e38a275}, !- Handle
  {07fc2468-bc1e-4e6c-8bb2-e553c55703aa}, !- Object Name
  Index,                                  !- Feature Name 1
  Integer,                                !- Feature Data Type 1
  9;                                      !- Feature Value 1

OS:SubSurface,
  {33381f16-655f-4b1f-8e3e-75ab02037d7a}, !- Handle
  Surface 3 - Window 2,                   !- Name
  FixedWindow,                            !- Sub Surface Type
  ,                                       !- Construction Name
  {3a36fd40-d8b1-486b-92c1-748c05b180da}, !- Surface Name
  ,                                       !- Outside Boundary Condition Object
  ,                                       !- View Factor to Ground
  ,                                       !- Frame and Divider Name
  ,                                       !- Multiplier
  ,                                       !- Number of Vertices
  3.801624096, 0, 2.1336,                 !- X,Y,Z Vertex 1 {m}
  3.801624096, 0, 1.07481589571081,       !- X,Y,Z Vertex 2 {m}
  3.00733744612063, 0, 1.07481589571081,  !- X,Y,Z Vertex 3 {m}
  3.00733744612063, 0, 2.1336;            !- X,Y,Z Vertex 4 {m}

OS:AdditionalProperties,
  {2494583f-5008-4e47-8a2f-3e4689b16d8b}, !- Handle
  {33381f16-655f-4b1f-8e3e-75ab02037d7a}, !- Object Name
  Index,                                  !- Feature Name 1
  Integer,                                !- Feature Data Type 1
  10;                                     !- Feature Value 1

OS:SubSurface,
  {6dd4d3e5-5a9e-4108-8ebf-b8e1b7ae8378}, !- Handle
  Surface 4 - Window 1,                   !- Name
  FixedWindow,                            !- Sub Surface Type
  ,                                       !- Construction Name
  {7cf96706-7ad4-456a-809a-1df5049e1a99}, !- Surface Name
  ,                                       !- Outside Boundary Condition Object
  ,                                       !- View Factor to Ground
  ,                                       !- Frame and Divider Name
  ,                                       !- Multiplier
  ,                                       !- Number of Vertices
  7.664208192, -10.0968544367191, 2.1336, !- X,Y,Z Vertex 1 {m}
  7.664208192, -10.0968544367191, 0.973806515917378, !- X,Y,Z Vertex 2 {m}
  7.664208192, -9.226791808, 0.973806515917378, !- X,Y,Z Vertex 3 {m}
  7.664208192, -9.226791808, 2.1336;      !- X,Y,Z Vertex 4 {m}

OS:AdditionalProperties,
  {43c17099-ef37-4f8e-89d0-f0d68af507e7}, !- Handle
  {6dd4d3e5-5a9e-4108-8ebf-b8e1b7ae8378}, !- Object Name
  Index,                                  !- Feature Name 1
  Integer,                                !- Feature Data Type 1
  11;                                     !- Feature Value 1

OS:SubSurface,
  {9357225c-6fe9-4d18-b890-146149023067}, !- Handle
  Surface 4 - Window 2,                   !- Name
  FixedWindow,                            !- Sub Surface Type
  ,                                       !- Construction Name
  {7cf96706-7ad4-456a-809a-1df5049e1a99}, !- Surface Name
  ,                                       !- Outside Boundary Condition Object
  ,                                       !- View Factor to Ground
  ,                                       !- Frame and Divider Name
  ,                                       !- Multiplier
  ,                                       !- Number of Vertices
  7.664208192, -9.165831808, 2.1336,      !- X,Y,Z Vertex 1 {m}
  7.664208192, -9.165831808, 0.973806515917378, !- X,Y,Z Vertex 2 {m}
  7.664208192, -8.29576917928085, 0.973806515917378, !- X,Y,Z Vertex 3 {m}
  7.664208192, -8.29576917928085, 2.1336; !- X,Y,Z Vertex 4 {m}

OS:AdditionalProperties,
  {9bfa9899-9ae7-4cf8-b73a-f9a800d1acd2}, !- Handle
  {9357225c-6fe9-4d18-b890-146149023067}, !- Object Name
  Index,                                  !- Feature Name 1
  Integer,                                !- Feature Data Type 1
  12;                                     !- Feature Value 1

OS:SubSurface,
  {dd409637-7fba-42c9-b329-669e1e717cae}, !- Handle
  Surface 4 - Window 3,                   !- Name
  FixedWindow,                            !- Sub Surface Type
  ,                                       !- Construction Name
  {7cf96706-7ad4-456a-809a-1df5049e1a99}, !- Surface Name
  ,                                       !- Outside Boundary Condition Object
  ,                                       !- View Factor to Ground
  ,                                       !- Frame and Divider Name
  ,                                       !- Multiplier
  ,                                       !- Number of Vertices
  7.664208192, -5.03318721835957, 2.1336, !- X,Y,Z Vertex 1 {m}
  7.664208192, -5.03318721835957, 0.973806515917378, !- X,Y,Z Vertex 2 {m}
  7.664208192, -4.16312458964043, 0.973806515917378, !- X,Y,Z Vertex 3 {m}
  7.664208192, -4.16312458964043, 2.1336; !- X,Y,Z Vertex 4 {m}

OS:AdditionalProperties,
  {190e82f6-ced1-4919-9e7f-bd76e9c8ebd4}, !- Handle
  {dd409637-7fba-42c9-b329-669e1e717cae}, !- Object Name
  Index,                                  !- Feature Name 1
  Integer,                                !- Feature Data Type 1
  13;                                     !- Feature Value 1

OS:SubSurface,
  {cff1cd48-61f9-4dbf-a371-dd227f8c8c77}, !- Handle
  Surface 5 - Window 1,                   !- Name
  FixedWindow,                            !- Sub Surface Type
  ,                                       !- Construction Name
  {61ab7fca-4f41-40c9-b2e3-edbc9bcb31e1}, !- Surface Name
  ,                                       !- Outside Boundary Condition Object
  ,                                       !- View Factor to Ground
  ,                                       !- Frame and Divider Name
  ,                                       !- Multiplier
  ,                                       !- Number of Vertices
  3.53166659812063, -13.794467712, 2.1336, !- X,Y,Z Vertex 1 {m}
  3.53166659812063, -13.794467712, 1.07481589571081, !- X,Y,Z Vertex 2 {m}
  4.325953248, -13.794467712, 1.07481589571081, !- X,Y,Z Vertex 3 {m}
  4.325953248, -13.794467712, 2.1336;     !- X,Y,Z Vertex 4 {m}

OS:AdditionalProperties,
  {a4ed7848-1c1c-4a13-ab99-bcc09f9f23af}, !- Handle
  {cff1cd48-61f9-4dbf-a371-dd227f8c8c77}, !- Object Name
  Index,                                  !- Feature Name 1
  Integer,                                !- Feature Data Type 1
  14;                                     !- Feature Value 1

OS:SubSurface,
  {9ff3869c-76c8-49b6-80d7-92e88be80152}, !- Handle
  Surface 5 - Window 2,                   !- Name
  FixedWindow,                            !- Sub Surface Type
  ,                                       !- Construction Name
  {61ab7fca-4f41-40c9-b2e3-edbc9bcb31e1}, !- Surface Name
  ,                                       !- Outside Boundary Condition Object
  ,                                       !- View Factor to Ground
  ,                                       !- Frame and Divider Name
  ,                                       !- Multiplier
  ,                                       !- Number of Vertices
  4.386913248, -13.794467712, 2.1336,     !- X,Y,Z Vertex 1 {m}
  4.386913248, -13.794467712, 1.07481589571081, !- X,Y,Z Vertex 2 {m}
  5.18119989787937, -13.794467712, 1.07481589571081, !- X,Y,Z Vertex 3 {m}
  5.18119989787937, -13.794467712, 2.1336; !- X,Y,Z Vertex 4 {m}

OS:AdditionalProperties,
  {5537151f-d06c-44f1-8d30-4fdc449d22eb}, !- Handle
  {9ff3869c-76c8-49b6-80d7-92e88be80152}, !- Object Name
  Index,                                  !- Feature Name 1
  Integer,                                !- Feature Data Type 1
  15;                                     !- Feature Value 1

