
OS:Version,
  {320dc4af-8d06-4b80-9634-717579b2183e}, !- Handle
  3.7.0;                                  !- Version Identifier

OS:ThermalZone,
  {47f0d9d8-3637-494c-9e6a-0c5a2046f3dc}, !- Handle
  conditioned space,                      !- Name
  ,                                       !- Multiplier
  ,                                       !- Ceiling Height {m}
  ,                                       !- Volume {m3}
  ,                                       !- Floor Area {m2}
  ,                                       !- Zone Inside Convection Algorithm
  ,                                       !- Zone Outside Convection Algorithm
  ,                                       !- Zone Conditioning Equipment List Name
  {897877d1-0c2d-4f17-8895-83037d1cf1ec}, !- Zone Air Inlet Port List
  {409f74bc-ca19-4561-80ea-84c9aad2182e}, !- Zone Air Exhaust Port List
  {dd4259ce-b8c9-44e6-8b67-29b3148b6dcf}, !- Zone Air Node Name
  {ae9d0474-e846-413b-9a74-af9bd1027332}, !- Zone Return Air Port List
  ,                                       !- Primary Daylighting Control Name
  ,                                       !- Fraction of Zone Controlled by Primary Daylighting Control
  ,                                       !- Secondary Daylighting Control Name
  ,                                       !- Fraction of Zone Controlled by Secondary Daylighting Control
  ,                                       !- Illuminance Map Name
  ,                                       !- Group Rendering Name
  ,                                       !- Thermostat Name
  No;                                     !- Use Ideal Air Loads

OS:Node,
  {240cbb69-220f-4e45-b9c0-433e339ebb52}, !- Handle
  Node 1,                                 !- Name
  {dd4259ce-b8c9-44e6-8b67-29b3148b6dcf}, !- Inlet Port
  ;                                       !- Outlet Port

OS:Connection,
  {dd4259ce-b8c9-44e6-8b67-29b3148b6dcf}, !- Handle
  {47f0d9d8-3637-494c-9e6a-0c5a2046f3dc}, !- Source Object
  11,                                     !- Outlet Port
  {240cbb69-220f-4e45-b9c0-433e339ebb52}, !- Target Object
  2;                                      !- Inlet Port

OS:PortList,
  {897877d1-0c2d-4f17-8895-83037d1cf1ec}, !- Handle
  {47f0d9d8-3637-494c-9e6a-0c5a2046f3dc}; !- HVAC Component

OS:PortList,
  {409f74bc-ca19-4561-80ea-84c9aad2182e}, !- Handle
  {47f0d9d8-3637-494c-9e6a-0c5a2046f3dc}; !- HVAC Component

OS:PortList,
  {ae9d0474-e846-413b-9a74-af9bd1027332}, !- Handle
  {47f0d9d8-3637-494c-9e6a-0c5a2046f3dc}; !- HVAC Component

OS:Sizing:Zone,
  {1efe5a54-518c-4bef-a3eb-c114ec4d3194}, !- Handle
  {47f0d9d8-3637-494c-9e6a-0c5a2046f3dc}, !- Zone or ZoneList Name
  SupplyAirTemperature,                   !- Zone Cooling Design Supply Air Temperature Input Method
  14,                                     !- Zone Cooling Design Supply Air Temperature {C}
  11.11,                                  !- Zone Cooling Design Supply Air Temperature Difference {deltaC}
  SupplyAirTemperature,                   !- Zone Heating Design Supply Air Temperature Input Method
  40,                                     !- Zone Heating Design Supply Air Temperature {C}
  11.11,                                  !- Zone Heating Design Supply Air Temperature Difference {deltaC}
  0.0085,                                 !- Zone Cooling Design Supply Air Humidity Ratio {kg-H2O/kg-air}
  0.008,                                  !- Zone Heating Design Supply Air Humidity Ratio {kg-H2O/kg-air}
  ,                                       !- Zone Heating Sizing Factor
  ,                                       !- Zone Cooling Sizing Factor
  DesignDay,                              !- Cooling Design Air Flow Method
  ,                                       !- Cooling Design Air Flow Rate {m3/s}
  ,                                       !- Cooling Minimum Air Flow per Zone Floor Area {m3/s-m2}
  ,                                       !- Cooling Minimum Air Flow {m3/s}
  ,                                       !- Cooling Minimum Air Flow Fraction
  DesignDay,                              !- Heating Design Air Flow Method
  ,                                       !- Heating Design Air Flow Rate {m3/s}
  ,                                       !- Heating Maximum Air Flow per Zone Floor Area {m3/s-m2}
  ,                                       !- Heating Maximum Air Flow {m3/s}
  ,                                       !- Heating Maximum Air Flow Fraction
  No,                                     !- Account for Dedicated Outdoor Air System
  NeutralSupplyAir,                       !- Dedicated Outdoor Air System Control Strategy
  autosize,                               !- Dedicated Outdoor Air Low Setpoint Temperature for Design {C}
  autosize,                               !- Dedicated Outdoor Air High Setpoint Temperature for Design {C}
  Sensible Load Only No Latent Load,      !- Zone Load Sizing Method
  HumidityRatioDifference,                !- Zone Latent Cooling Design Supply Air Humidity Ratio Input Method
  ,                                       !- Zone Dehumidification Design Supply Air Humidity Ratio {kgWater/kgDryAir}
  0.005,                                  !- Zone Cooling Design Supply Air Humidity Ratio Difference {kgWater/kgDryAir}
  HumidityRatioDifference,                !- Zone Latent Heating Design Supply Air Humidity Ratio Input Method
  ,                                       !- Zone Humidification Design Supply Air Humidity Ratio {kgWater/kgDryAir}
  0.005;                                  !- Zone Humidification Design Supply Air Humidity Ratio Difference {kgWater/kgDryAir}

OS:ZoneHVAC:EquipmentList,
  {f2871747-39cf-4888-bd3d-a5fcb8d31def}, !- Handle
  Zone HVAC Equipment List 1,             !- Name
  {47f0d9d8-3637-494c-9e6a-0c5a2046f3dc}; !- Thermal Zone

OS:Space,
  {22ecfdb5-bc5d-4301-a5af-dbfca7d0cc90}, !- Handle
  conditioned space 1,                    !- Name
  {7f2836b2-d509-4fe1-beef-ef6edddc4ef3}, !- Space Type Name
  ,                                       !- Default Construction Set Name
  ,                                       !- Default Schedule Set Name
  ,                                       !- Direction of Relative North {deg}
  ,                                       !- X Origin {m}
  ,                                       !- Y Origin {m}
  ,                                       !- Z Origin {m}
  ,                                       !- Building Story Name
  {47f0d9d8-3637-494c-9e6a-0c5a2046f3dc}; !- Thermal Zone Name

OS:Surface,
  {2ea6e4c2-b5dd-4c5d-9b5d-8bb8ff94ea28}, !- Handle
  Surface 1,                              !- Name
  Floor,                                  !- Surface Type
  ,                                       !- Construction Name
  {22ecfdb5-bc5d-4301-a5af-dbfca7d0cc90}, !- Space Name
  Adiabatic,                              !- Outside Boundary Condition
  ,                                       !- Outside Boundary Condition Object
  NoSun,                                  !- Sun Exposure
  NoWind,                                 !- Wind Exposure
  ,                                       !- View Factor to Ground
  ,                                       !- Number of Vertices
  0, -11.9498589597395, 0,                !- X,Y,Z Vertex 1 {m}
  0, 0, 0,                                !- X,Y,Z Vertex 2 {m}
  6.63934163803129, 0, 0,                 !- X,Y,Z Vertex 3 {m}
  6.63934163803129, -11.9498589597395, 0; !- X,Y,Z Vertex 4 {m}

OS:Surface,
  {18a673fe-c211-46e4-a590-0f2aec3be922}, !- Handle
  Surface 2,                              !- Name
  Wall,                                   !- Surface Type
  ,                                       !- Construction Name
  {22ecfdb5-bc5d-4301-a5af-dbfca7d0cc90}, !- Space Name
  Adiabatic,                              !- Outside Boundary Condition
  ,                                       !- Outside Boundary Condition Object
  NoSun,                                  !- Sun Exposure
  NoWind,                                 !- Wind Exposure
  ,                                       !- View Factor to Ground
  ,                                       !- Number of Vertices
  0, -11.9498589597395, 2.4384,           !- X,Y,Z Vertex 1 {m}
  0, 0, 2.4384,                           !- X,Y,Z Vertex 2 {m}
  0, 0, 0,                                !- X,Y,Z Vertex 3 {m}
  0, -11.9498589597395, 0;                !- X,Y,Z Vertex 4 {m}

OS:Surface,
  {311ff83a-7e1e-4b90-b5b9-7f84288e5fa0}, !- Handle
  Surface 3,                              !- Name
  Wall,                                   !- Surface Type
  ,                                       !- Construction Name
  {22ecfdb5-bc5d-4301-a5af-dbfca7d0cc90}, !- Space Name
  Outdoors,                               !- Outside Boundary Condition
  ,                                       !- Outside Boundary Condition Object
  SunExposed,                             !- Sun Exposure
  WindExposed,                            !- Wind Exposure
  ,                                       !- View Factor to Ground
  ,                                       !- Number of Vertices
  0, 0, 2.4384,                           !- X,Y,Z Vertex 1 {m}
  6.63934163803129, 0, 2.4384,            !- X,Y,Z Vertex 2 {m}
  6.63934163803129, 0, 0,                 !- X,Y,Z Vertex 3 {m}
  0, 0, 0;                                !- X,Y,Z Vertex 4 {m}

OS:Surface,
  {4b8101e5-3234-400d-b3bc-4bbecc49ec75}, !- Handle
  Surface 4,                              !- Name
  Wall,                                   !- Surface Type
  ,                                       !- Construction Name
  {22ecfdb5-bc5d-4301-a5af-dbfca7d0cc90}, !- Space Name
  Adiabatic,                              !- Outside Boundary Condition
  ,                                       !- Outside Boundary Condition Object
  NoSun,                                  !- Sun Exposure
  NoWind,                                 !- Wind Exposure
  ,                                       !- View Factor to Ground
  ,                                       !- Number of Vertices
  6.63934163803129, 0, 2.4384,            !- X,Y,Z Vertex 1 {m}
  6.63934163803129, -11.9498589597395, 2.4384, !- X,Y,Z Vertex 2 {m}
  6.63934163803129, -11.9498589597395, 0, !- X,Y,Z Vertex 3 {m}
  6.63934163803129, 0, 0;                 !- X,Y,Z Vertex 4 {m}

OS:Surface,
  {95c25568-1e02-41ee-9f1a-c636ef1faa72}, !- Handle
  Surface 5,                              !- Name
  Wall,                                   !- Surface Type
  ,                                       !- Construction Name
  {22ecfdb5-bc5d-4301-a5af-dbfca7d0cc90}, !- Space Name
  Adiabatic,                              !- Outside Boundary Condition
  ,                                       !- Outside Boundary Condition Object
  NoSun,                                  !- Sun Exposure
  NoWind,                                 !- Wind Exposure
  ,                                       !- View Factor to Ground
  ,                                       !- Number of Vertices
  6.63934163803129, -11.9498589597395, 2.4384, !- X,Y,Z Vertex 1 {m}
  0, -11.9498589597395, 2.4384,           !- X,Y,Z Vertex 2 {m}
  0, -11.9498589597395, 0,                !- X,Y,Z Vertex 3 {m}
  6.63934163803129, -11.9498589597395, 0; !- X,Y,Z Vertex 4 {m}

OS:Surface,
  {3a3d2089-8c4d-4deb-8c2c-383333d39352}, !- Handle
  Surface 6,                              !- Name
  RoofCeiling,                            !- Surface Type
  ,                                       !- Construction Name
  {22ecfdb5-bc5d-4301-a5af-dbfca7d0cc90}, !- Space Name
  Adiabatic,                              !- Outside Boundary Condition
  ,                                       !- Outside Boundary Condition Object
  NoSun,                                  !- Sun Exposure
  NoWind,                                 !- Wind Exposure
  ,                                       !- View Factor to Ground
  ,                                       !- Number of Vertices
  6.63934163803129, -11.9498589597395, 2.4384, !- X,Y,Z Vertex 1 {m}
  6.63934163803129, 0, 2.4384,            !- X,Y,Z Vertex 2 {m}
  0, 0, 2.4384,                           !- X,Y,Z Vertex 3 {m}
  0, -11.9498589597395, 2.4384;           !- X,Y,Z Vertex 4 {m}

OS:AdditionalProperties,
  {d514a1fb-6d12-4ea1-beab-e8bf6436dc2a}, !- Handle
  {22ecfdb5-bc5d-4301-a5af-dbfca7d0cc90}, !- Object Name
  Index,                                  !- Feature Name 1
  Integer,                                !- Feature Data Type 1
  1;                                      !- Feature Value 1

OS:AdditionalProperties,
  {d1c1055c-2464-4bbf-9a96-2b801bd55642}, !- Handle
  {2ea6e4c2-b5dd-4c5d-9b5d-8bb8ff94ea28}, !- Object Name
  Index,                                  !- Feature Name 1
  Integer,                                !- Feature Data Type 1
  2;                                      !- Feature Value 1

OS:AdditionalProperties,
  {90ace892-f682-4ed8-be94-6fb4622a6dbe}, !- Handle
  {95c25568-1e02-41ee-9f1a-c636ef1faa72}, !- Object Name
  Index,                                  !- Feature Name 1
  Integer,                                !- Feature Data Type 1
  5;                                      !- Feature Value 1

OS:AdditionalProperties,
  {d820868f-0a6d-472c-86fe-995186dbd404}, !- Handle
  {18a673fe-c211-46e4-a590-0f2aec3be922}, !- Object Name
  Index,                                  !- Feature Name 1
  Integer,                                !- Feature Data Type 1
  6;                                      !- Feature Value 1

OS:AdditionalProperties,
  {eb4e8488-f65d-4532-81cb-6fb9c8bbb807}, !- Handle
  {311ff83a-7e1e-4b90-b5b9-7f84288e5fa0}, !- Object Name
  Index,                                  !- Feature Name 1
  Integer,                                !- Feature Data Type 1
  3;                                      !- Feature Value 1

OS:AdditionalProperties,
  {10e5ff87-596d-4c6a-82d5-c72d4617335e}, !- Handle
  {3a3d2089-8c4d-4deb-8c2c-383333d39352}, !- Object Name
  Index,                                  !- Feature Name 1
  Integer,                                !- Feature Data Type 1
  7;                                      !- Feature Value 1

OS:AdditionalProperties,
  {4797e7ad-ffaa-45cb-aa1f-b1afe0e6d55f}, !- Handle
  {4b8101e5-3234-400d-b3bc-4bbecc49ec75}, !- Object Name
  Index,                                  !- Feature Name 1
  Integer,                                !- Feature Data Type 1
  4;                                      !- Feature Value 1

OS:SpaceType,
  {7f2836b2-d509-4fe1-beef-ef6edddc4ef3}, !- Handle
  Space Type 1,                           !- Name
  ,                                       !- Default Construction Set Name
  ,                                       !- Default Schedule Set Name
  ,                                       !- Group Rendering Name
  ,                                       !- Design Specification Outdoor Air Object Name
  ,                                       !- Standards Template
  ,                                       !- Standards Building Type
  conditioned space;                      !- Standards Space Type

OS:SubSurface,
  {b1a85285-f1ad-422e-a63b-8d391e21ed43}, !- Handle
  Surface 5 - Door,                       !- Name
  Door,                                   !- Sub Surface Type
  ,                                       !- Construction Name
  {95c25568-1e02-41ee-9f1a-c636ef1faa72}, !- Surface Name
  ,                                       !- Outside Boundary Condition Object
  ,                                       !- View Factor to Ground
  ,                                       !- Frame and Divider Name
  ,                                       !- Multiplier
  ,                                       !- Number of Vertices
  0.1524, -11.949857736, 2.1336,          !- X,Y,Z Vertex 1 {m}
  0.1524, -11.949857736, 0,               !- X,Y,Z Vertex 2 {m}
  1.02325714285714, -11.949857736, 0,     !- X,Y,Z Vertex 3 {m}
  1.02325714285714, -11.949857736, 2.1336; !- X,Y,Z Vertex 4 {m}

OS:AdditionalProperties,
  {a6846004-fd56-4b20-81df-c4a74040c984}, !- Handle
  {b1a85285-f1ad-422e-a63b-8d391e21ed43}, !- Object Name
  Index,                                  !- Feature Name 1
  Integer,                                !- Feature Data Type 1
  8;                                      !- Feature Value 1

OS:SubSurface,
  {f3b44ab3-881b-4099-bfd6-213e9ef5996a}, !- Handle
  Surface 3 - Window 1,                   !- Name
  FixedWindow,                            !- Sub Surface Type
  ,                                       !- Construction Name
  {311ff83a-7e1e-4b90-b5b9-7f84288e5fa0}, !- Surface Name
  ,                                       !- Outside Boundary Condition Object
  ,                                       !- View Factor to Ground
  ,                                       !- Frame and Divider Name
  ,                                       !- Multiplier
  ,                                       !- Number of Vertices
  5.86362845818163, 0, 2.1336,            !- X,Y,Z Vertex 1 {m}
  5.86362845818163, 0, 0.995695845599887, !- X,Y,Z Vertex 2 {m}
  5.009986932, 0, 0.995695845599887,      !- X,Y,Z Vertex 3 {m}
  5.009986932, 0, 2.1336;                 !- X,Y,Z Vertex 4 {m}

OS:AdditionalProperties,
  {d0abd74b-7094-4d83-958e-3eb382f22b1c}, !- Handle
  {f3b44ab3-881b-4099-bfd6-213e9ef5996a}, !- Object Name
  Index,                                  !- Feature Name 1
  Integer,                                !- Feature Data Type 1
  9;                                      !- Feature Value 1

OS:SubSurface,
  {8977dbfe-f31f-4739-87a6-d0c4208c53bf}, !- Handle
  Surface 3 - Window 2,                   !- Name
  FixedWindow,                            !- Sub Surface Type
  ,                                       !- Construction Name
  {311ff83a-7e1e-4b90-b5b9-7f84288e5fa0}, !- Surface Name
  ,                                       !- Outside Boundary Condition Object
  ,                                       !- View Factor to Ground
  ,                                       !- Frame and Divider Name
  ,                                       !- Multiplier
  ,                                       !- Number of Vertices
  4.949026932, 0, 2.1336,                 !- X,Y,Z Vertex 1 {m}
  4.949026932, 0, 0.995695845599887,      !- X,Y,Z Vertex 2 {m}
  4.09538540581837, 0, 0.995695845599887, !- X,Y,Z Vertex 3 {m}
  4.09538540581837, 0, 2.1336;            !- X,Y,Z Vertex 4 {m}

OS:AdditionalProperties,
  {2c643bef-2ae8-4098-a6c3-4e4eac4ec1f0}, !- Handle
  {8977dbfe-f31f-4739-87a6-d0c4208c53bf}, !- Object Name
  Index,                                  !- Feature Name 1
  Integer,                                !- Feature Data Type 1
  10;                                     !- Feature Value 1

OS:SubSurface,
  {20e57c0a-4fa4-4c7a-ac53-2ed67982ace9}, !- Handle
  Surface 3 - Window 3,                   !- Name
  FixedWindow,                            !- Sub Surface Type
  ,                                       !- Construction Name
  {311ff83a-7e1e-4b90-b5b9-7f84288e5fa0}, !- Surface Name
  ,                                       !- Outside Boundary Condition Object
  ,                                       !- View Factor to Ground
  ,                                       !- Frame and Divider Name
  ,                                       !- Multiplier
  ,                                       !- Number of Vertices
  4.20379281418163, 0, 2.1336,            !- X,Y,Z Vertex 1 {m}
  4.20379281418163, 0, 0.995695845599887, !- X,Y,Z Vertex 2 {m}
  3.350151288, 0, 0.995695845599887,      !- X,Y,Z Vertex 3 {m}
  3.350151288, 0, 2.1336;                 !- X,Y,Z Vertex 4 {m}

OS:AdditionalProperties,
  {b0ce6e7a-e40e-46be-a6cb-0d6d2237c83c}, !- Handle
  {20e57c0a-4fa4-4c7a-ac53-2ed67982ace9}, !- Object Name
  Index,                                  !- Feature Name 1
  Integer,                                !- Feature Data Type 1
  11;                                     !- Feature Value 1

OS:SubSurface,
  {63de523e-cf6e-495b-9b96-6ce22464c47f}, !- Handle
  Surface 3 - Window 4,                   !- Name
  FixedWindow,                            !- Sub Surface Type
  ,                                       !- Construction Name
  {311ff83a-7e1e-4b90-b5b9-7f84288e5fa0}, !- Surface Name
  ,                                       !- Outside Boundary Condition Object
  ,                                       !- View Factor to Ground
  ,                                       !- Frame and Divider Name
  ,                                       !- Multiplier
  ,                                       !- Number of Vertices
  3.289191288, 0, 2.1336,                 !- X,Y,Z Vertex 1 {m}
  3.289191288, 0, 0.995695845599887,      !- X,Y,Z Vertex 2 {m}
  2.43554976181837, 0, 0.995695845599887, !- X,Y,Z Vertex 3 {m}
  2.43554976181837, 0, 2.1336;            !- X,Y,Z Vertex 4 {m}

OS:AdditionalProperties,
  {0edcda98-15eb-487c-8915-7c0122b0d2cb}, !- Handle
  {63de523e-cf6e-495b-9b96-6ce22464c47f}, !- Object Name
  Index,                                  !- Feature Name 1
  Integer,                                !- Feature Data Type 1
  12;                                     !- Feature Value 1

OS:SubSurface,
  {8e7535f6-ff9d-4a77-93d9-12e44eb87905}, !- Handle
  Surface 3 - Window 5,                   !- Name
  FixedWindow,                            !- Sub Surface Type
  ,                                       !- Construction Name
  {311ff83a-7e1e-4b90-b5b9-7f84288e5fa0}, !- Surface Name
  ,                                       !- Outside Boundary Condition Object
  ,                                       !- View Factor to Ground
  ,                                       !- Frame and Divider Name
  ,                                       !- Multiplier
  ,                                       !- Number of Vertices
  2.08665640709082, 0, 2.1336,            !- X,Y,Z Vertex 1 {m}
  2.08665640709082, 0, 0.995695845599887, !- X,Y,Z Vertex 2 {m}
  1.23301488090919, 0, 0.995695845599887, !- X,Y,Z Vertex 3 {m}
  1.23301488090919, 0, 2.1336;            !- X,Y,Z Vertex 4 {m}

OS:AdditionalProperties,
  {5f2af917-82a7-4d53-a7d5-b219633ca14d}, !- Handle
  {8e7535f6-ff9d-4a77-93d9-12e44eb87905}, !- Object Name
  Index,                                  !- Feature Name 1
  Integer,                                !- Feature Data Type 1
  13;                                     !- Feature Value 1

