
OS:Version,
  {12ad20f2-f272-41a2-af7a-0a3d5ad3b30c}, !- Handle
  3.7.0;                                  !- Version Identifier

OS:ThermalZone,
  {d7de4552-7fb9-4683-b807-69ac47cc8ce5}, !- Handle
  conditioned space,                      !- Name
  ,                                       !- Multiplier
  ,                                       !- Ceiling Height {m}
  ,                                       !- Volume {m3}
  ,                                       !- Floor Area {m2}
  ,                                       !- Zone Inside Convection Algorithm
  ,                                       !- Zone Outside Convection Algorithm
  ,                                       !- Zone Conditioning Equipment List Name
  {85dbf614-acbc-4e55-affe-5174a98bdd0a}, !- Zone Air Inlet Port List
  {b1d02e64-26a5-40ec-91a9-4b5097ca40a4}, !- Zone Air Exhaust Port List
  {055c89be-685f-47a4-b99c-d6b496757cde}, !- Zone Air Node Name
  {200e7a08-529d-4c80-96c8-84ed483c1951}, !- Zone Return Air Port List
  ,                                       !- Primary Daylighting Control Name
  ,                                       !- Fraction of Zone Controlled by Primary Daylighting Control
  ,                                       !- Secondary Daylighting Control Name
  ,                                       !- Fraction of Zone Controlled by Secondary Daylighting Control
  ,                                       !- Illuminance Map Name
  ,                                       !- Group Rendering Name
  ,                                       !- Thermostat Name
  No;                                     !- Use Ideal Air Loads

OS:Node,
  {ca1d29bc-9886-4366-8f6a-72139dc0b258}, !- Handle
  Node 1,                                 !- Name
  {055c89be-685f-47a4-b99c-d6b496757cde}, !- Inlet Port
  ;                                       !- Outlet Port

OS:Connection,
  {055c89be-685f-47a4-b99c-d6b496757cde}, !- Handle
  {d7de4552-7fb9-4683-b807-69ac47cc8ce5}, !- Source Object
  11,                                     !- Outlet Port
  {ca1d29bc-9886-4366-8f6a-72139dc0b258}, !- Target Object
  2;                                      !- Inlet Port

OS:PortList,
  {85dbf614-acbc-4e55-affe-5174a98bdd0a}, !- Handle
  {d7de4552-7fb9-4683-b807-69ac47cc8ce5}; !- HVAC Component

OS:PortList,
  {b1d02e64-26a5-40ec-91a9-4b5097ca40a4}, !- Handle
  {d7de4552-7fb9-4683-b807-69ac47cc8ce5}; !- HVAC Component

OS:PortList,
  {200e7a08-529d-4c80-96c8-84ed483c1951}, !- Handle
  {d7de4552-7fb9-4683-b807-69ac47cc8ce5}; !- HVAC Component

OS:Sizing:Zone,
  {386002e3-94d9-42b5-9bbe-edf3d503c6db}, !- Handle
  {d7de4552-7fb9-4683-b807-69ac47cc8ce5}, !- Zone or ZoneList Name
  SupplyAirTemperature,                   !- Zone Cooling Design Supply Air Temperature Input Method
  14,                                     !- Zone Cooling Design Supply Air Temperature {C}
  11.11,                                  !- Zone Cooling Design Supply Air Temperature Difference {deltaC}
  SupplyAirTemperature,                   !- Zone Heating Design Supply Air Temperature Input Method
  40,                                     !- Zone Heating Design Supply Air Temperature {C}
  11.11,                                  !- Zone Heating Design Supply Air Temperature Difference {deltaC}
  0.0085,                                 !- Zone Cooling Design Supply Air Humidity Ratio {kg-H2O/kg-air}
  0.008,                                  !- Zone Heating Design Supply Air Humidity Ratio {kg-H2O/kg-air}
  ,                                       !- Zone Heating Sizing Factor
  ,                                       !- Zone Cooling Sizing Factor
  DesignDay,                              !- Cooling Design Air Flow Method
  ,                                       !- Cooling Design Air Flow Rate {m3/s}
  ,                                       !- Cooling Minimum Air Flow per Zone Floor Area {m3/s-m2}
  ,                                       !- Cooling Minimum Air Flow {m3/s}
  ,                                       !- Cooling Minimum Air Flow Fraction
  DesignDay,                              !- Heating Design Air Flow Method
  ,                                       !- Heating Design Air Flow Rate {m3/s}
  ,                                       !- Heating Maximum Air Flow per Zone Floor Area {m3/s-m2}
  ,                                       !- Heating Maximum Air Flow {m3/s}
  ,                                       !- Heating Maximum Air Flow Fraction
  No,                                     !- Account for Dedicated Outdoor Air System
  NeutralSupplyAir,                       !- Dedicated Outdoor Air System Control Strategy
  autosize,                               !- Dedicated Outdoor Air Low Setpoint Temperature for Design {C}
  autosize,                               !- Dedicated Outdoor Air High Setpoint Temperature for Design {C}
  Sensible Load Only No Latent Load,      !- Zone Load Sizing Method
  HumidityRatioDifference,                !- Zone Latent Cooling Design Supply Air Humidity Ratio Input Method
  ,                                       !- Zone Dehumidification Design Supply Air Humidity Ratio {kgWater/kgDryAir}
  0.005,                                  !- Zone Cooling Design Supply Air Humidity Ratio Difference {kgWater/kgDryAir}
  HumidityRatioDifference,                !- Zone Latent Heating Design Supply Air Humidity Ratio Input Method
  ,                                       !- Zone Humidification Design Supply Air Humidity Ratio {kgWater/kgDryAir}
  0.005;                                  !- Zone Humidification Design Supply Air Humidity Ratio Difference {kgWater/kgDryAir}

OS:ZoneHVAC:EquipmentList,
  {b5b010e4-e3f6-4d33-93fe-778315c5a62b}, !- Handle
  Zone HVAC Equipment List 1,             !- Name
  {d7de4552-7fb9-4683-b807-69ac47cc8ce5}; !- Thermal Zone

OS:ThermalZone,
  {10faf78b-4b13-4a6e-9458-365d4e1e26a1}, !- Handle
  garage,                                 !- Name
  ,                                       !- Multiplier
  ,                                       !- Ceiling Height {m}
  ,                                       !- Volume {m3}
  ,                                       !- Floor Area {m2}
  ,                                       !- Zone Inside Convection Algorithm
  ,                                       !- Zone Outside Convection Algorithm
  ,                                       !- Zone Conditioning Equipment List Name
  {50608266-b4fe-40ea-bcc2-7f13a4634221}, !- Zone Air Inlet Port List
  {2b96ff5a-a422-4b71-a7c7-5f6a2324248c}, !- Zone Air Exhaust Port List
  {23888f7f-e3d6-4146-a2eb-4f9f1867b64f}, !- Zone Air Node Name
  {2a0605af-428c-47e6-a9b8-d72782b6eb3c}, !- Zone Return Air Port List
  ,                                       !- Primary Daylighting Control Name
  ,                                       !- Fraction of Zone Controlled by Primary Daylighting Control
  ,                                       !- Secondary Daylighting Control Name
  ,                                       !- Fraction of Zone Controlled by Secondary Daylighting Control
  ,                                       !- Illuminance Map Name
  ,                                       !- Group Rendering Name
  ,                                       !- Thermostat Name
  No;                                     !- Use Ideal Air Loads

OS:Node,
  {19710922-fecd-4d91-97ac-b2567e59adad}, !- Handle
  Node 2,                                 !- Name
  {23888f7f-e3d6-4146-a2eb-4f9f1867b64f}, !- Inlet Port
  ;                                       !- Outlet Port

OS:Connection,
  {23888f7f-e3d6-4146-a2eb-4f9f1867b64f}, !- Handle
  {10faf78b-4b13-4a6e-9458-365d4e1e26a1}, !- Source Object
  11,                                     !- Outlet Port
  {19710922-fecd-4d91-97ac-b2567e59adad}, !- Target Object
  2;                                      !- Inlet Port

OS:PortList,
  {50608266-b4fe-40ea-bcc2-7f13a4634221}, !- Handle
  {10faf78b-4b13-4a6e-9458-365d4e1e26a1}; !- HVAC Component

OS:PortList,
  {2b96ff5a-a422-4b71-a7c7-5f6a2324248c}, !- Handle
  {10faf78b-4b13-4a6e-9458-365d4e1e26a1}; !- HVAC Component

OS:PortList,
  {2a0605af-428c-47e6-a9b8-d72782b6eb3c}, !- Handle
  {10faf78b-4b13-4a6e-9458-365d4e1e26a1}; !- HVAC Component

OS:Sizing:Zone,
  {5d4f6c7c-2267-42e0-958c-253749dd2e4b}, !- Handle
  {10faf78b-4b13-4a6e-9458-365d4e1e26a1}, !- Zone or ZoneList Name
  SupplyAirTemperature,                   !- Zone Cooling Design Supply Air Temperature Input Method
  14,                                     !- Zone Cooling Design Supply Air Temperature {C}
  11.11,                                  !- Zone Cooling Design Supply Air Temperature Difference {deltaC}
  SupplyAirTemperature,                   !- Zone Heating Design Supply Air Temperature Input Method
  40,                                     !- Zone Heating Design Supply Air Temperature {C}
  11.11,                                  !- Zone Heating Design Supply Air Temperature Difference {deltaC}
  0.0085,                                 !- Zone Cooling Design Supply Air Humidity Ratio {kg-H2O/kg-air}
  0.008,                                  !- Zone Heating Design Supply Air Humidity Ratio {kg-H2O/kg-air}
  ,                                       !- Zone Heating Sizing Factor
  ,                                       !- Zone Cooling Sizing Factor
  DesignDay,                              !- Cooling Design Air Flow Method
  ,                                       !- Cooling Design Air Flow Rate {m3/s}
  ,                                       !- Cooling Minimum Air Flow per Zone Floor Area {m3/s-m2}
  ,                                       !- Cooling Minimum Air Flow {m3/s}
  ,                                       !- Cooling Minimum Air Flow Fraction
  DesignDay,                              !- Heating Design Air Flow Method
  ,                                       !- Heating Design Air Flow Rate {m3/s}
  ,                                       !- Heating Maximum Air Flow per Zone Floor Area {m3/s-m2}
  ,                                       !- Heating Maximum Air Flow {m3/s}
  ,                                       !- Heating Maximum Air Flow Fraction
  No,                                     !- Account for Dedicated Outdoor Air System
  NeutralSupplyAir,                       !- Dedicated Outdoor Air System Control Strategy
  autosize,                               !- Dedicated Outdoor Air Low Setpoint Temperature for Design {C}
  autosize,                               !- Dedicated Outdoor Air High Setpoint Temperature for Design {C}
  Sensible Load Only No Latent Load,      !- Zone Load Sizing Method
  HumidityRatioDifference,                !- Zone Latent Cooling Design Supply Air Humidity Ratio Input Method
  ,                                       !- Zone Dehumidification Design Supply Air Humidity Ratio {kgWater/kgDryAir}
  0.005,                                  !- Zone Cooling Design Supply Air Humidity Ratio Difference {kgWater/kgDryAir}
  HumidityRatioDifference,                !- Zone Latent Heating Design Supply Air Humidity Ratio Input Method
  ,                                       !- Zone Humidification Design Supply Air Humidity Ratio {kgWater/kgDryAir}
  0.005;                                  !- Zone Humidification Design Supply Air Humidity Ratio Difference {kgWater/kgDryAir}

OS:ZoneHVAC:EquipmentList,
  {781b0c68-3cc6-4d0a-a047-8fe4710c88c9}, !- Handle
  Zone HVAC Equipment List 2,             !- Name
  {10faf78b-4b13-4a6e-9458-365d4e1e26a1}; !- Thermal Zone

OS:Space,
  {e705c749-ffcb-4192-87ff-c156d59b885a}, !- Handle
  garage 1,                               !- Name
  {d7d051f6-b814-439e-a6d0-ee80a68b7672}, !- Space Type Name
  ,                                       !- Default Construction Set Name
  ,                                       !- Default Schedule Set Name
  -0,                                     !- Direction of Relative North {deg}
  0,                                      !- X Origin {m}
  0,                                      !- Y Origin {m}
  0.23495,                                !- Z Origin {m}
  ,                                       !- Building Story Name
  {10faf78b-4b13-4a6e-9458-365d4e1e26a1}; !- Thermal Zone Name

OS:Surface,
  {2638e053-c8cf-4ea5-8feb-a86c55558457}, !- Handle
  Surface 1,                              !- Name
  Floor,                                  !- Surface Type
  ,                                       !- Construction Name
  {e705c749-ffcb-4192-87ff-c156d59b885a}, !- Space Name
  Foundation,                             !- Outside Boundary Condition
  ,                                       !- Outside Boundary Condition Object
  NoSun,                                  !- Sun Exposure
  NoWind,                                 !- Wind Exposure
  ,                                       !- View Factor to Ground
  ,                                       !- Number of Vertices
  6.84668838933565, -3.6576, -2.77555756156289e-17, !- X,Y,Z Vertex 1 {m}
  6.84668838933565, 3.6576, -2.77555756156289e-17, !- X,Y,Z Vertex 2 {m}
  14.1618883893357, 3.6576, -2.77555756156289e-17, !- X,Y,Z Vertex 3 {m}
  14.1618883893357, -3.6576, -2.77555756156289e-17; !- X,Y,Z Vertex 4 {m}

OS:Surface,
  {8e1e209b-9ba9-47dc-82ef-3d5f3836ca6d}, !- Handle
  Surface 2,                              !- Name
  Wall,                                   !- Surface Type
  ,                                       !- Construction Name
  {e705c749-ffcb-4192-87ff-c156d59b885a}, !- Space Name
  Surface,                                !- Outside Boundary Condition
  {8d31cda1-1592-46ad-a805-04fb2ce45634}, !- Outside Boundary Condition Object
  NoSun,                                  !- Sun Exposure
  NoWind,                                 !- Wind Exposure
  ,                                       !- View Factor to Ground
  ,                                       !- Number of Vertices
  6.84668838933565, 3.6576, 2.4384,       !- X,Y,Z Vertex 1 {m}
  6.84668838933565, 3.6576, -2.77555756156289e-17, !- X,Y,Z Vertex 2 {m}
  6.84668838933565, 0, -2.77555756156289e-17, !- X,Y,Z Vertex 3 {m}
  6.84668838933565, 0, 2.4384;            !- X,Y,Z Vertex 4 {m}

OS:Surface,
  {aa9fb36e-d70a-4294-a614-21f1757aab46}, !- Handle
  Surface 3,                              !- Name
  Wall,                                   !- Surface Type
  ,                                       !- Construction Name
  {e705c749-ffcb-4192-87ff-c156d59b885a}, !- Space Name
  Surface,                                !- Outside Boundary Condition
  {f5ebf999-9f82-4d90-b706-05a0d7ef1eea}, !- Outside Boundary Condition Object
  NoSun,                                  !- Sun Exposure
  NoWind,                                 !- Wind Exposure
  ,                                       !- View Factor to Ground
  ,                                       !- Number of Vertices
  14.1618883893357, 3.6576, 2.4384,       !- X,Y,Z Vertex 1 {m}
  14.1618883893357, 3.6576, -2.77555756156289e-17, !- X,Y,Z Vertex 2 {m}
  6.84668838933565, 3.6576, -2.77555756156289e-17, !- X,Y,Z Vertex 3 {m}
  6.84668838933565, 3.6576, 2.4384;       !- X,Y,Z Vertex 4 {m}

OS:Surface,
  {eab21dd3-b7dd-491c-beb3-468fa79c24ab}, !- Handle
  Surface 4,                              !- Name
  Wall,                                   !- Surface Type
  ,                                       !- Construction Name
  {e705c749-ffcb-4192-87ff-c156d59b885a}, !- Space Name
  Outdoors,                               !- Outside Boundary Condition
  ,                                       !- Outside Boundary Condition Object
  SunExposed,                             !- Sun Exposure
  WindExposed,                            !- Wind Exposure
  ,                                       !- View Factor to Ground
  ,                                       !- Number of Vertices
  14.1618883893357, 3.6576, 2.4384,       !- X,Y,Z Vertex 1 {m}
  14.1618883893357, -3.6576, 2.4384,      !- X,Y,Z Vertex 2 {m}
  14.1618883893357, -3.6576, -2.77555756156289e-17, !- X,Y,Z Vertex 3 {m}
  14.1618883893357, 3.6576, -2.77555756156289e-17; !- X,Y,Z Vertex 4 {m}

OS:Surface,
  {9f783673-1590-4681-b9e9-842694179b7e}, !- Handle
  Surface 5,                              !- Name
  Wall,                                   !- Surface Type
  ,                                       !- Construction Name
  {e705c749-ffcb-4192-87ff-c156d59b885a}, !- Space Name
  Outdoors,                               !- Outside Boundary Condition
  ,                                       !- Outside Boundary Condition Object
  SunExposed,                             !- Sun Exposure
  WindExposed,                            !- Wind Exposure
  ,                                       !- View Factor to Ground
  ,                                       !- Number of Vertices
  14.1618883893357, -3.6576, 2.4384,      !- X,Y,Z Vertex 1 {m}
  6.84668838933565, -3.6576, 2.4384,      !- X,Y,Z Vertex 2 {m}
  6.84668838933565, -3.6576, -2.77555756156289e-17, !- X,Y,Z Vertex 3 {m}
  14.1618883893357, -3.6576, -2.77555756156289e-17; !- X,Y,Z Vertex 4 {m}

OS:Surface,
  {8edfc972-aec0-4e96-aa24-4bc26735e7ea}, !- Handle
  Surface 6,                              !- Name
  RoofCeiling,                            !- Surface Type
  ,                                       !- Construction Name
  {e705c749-ffcb-4192-87ff-c156d59b885a}, !- Space Name
  Surface,                                !- Outside Boundary Condition
  {ada4297e-6b58-4ae3-a508-637433b24423}, !- Outside Boundary Condition Object
  NoSun,                                  !- Sun Exposure
  NoWind,                                 !- Wind Exposure
  ,                                       !- View Factor to Ground
  ,                                       !- Number of Vertices
  14.1618883893357, -3.6576, 2.4384,      !- X,Y,Z Vertex 1 {m}
  14.1618883893357, 3.6576, 2.4384,       !- X,Y,Z Vertex 2 {m}
  6.84668838933565, 3.6576, 2.4384,       !- X,Y,Z Vertex 3 {m}
  6.84668838933565, -3.6576, 2.4384;      !- X,Y,Z Vertex 4 {m}

OS:AdditionalProperties,
  {dc27a857-0c90-4754-81e3-f6ac27e69c66}, !- Handle
  {e705c749-ffcb-4192-87ff-c156d59b885a}, !- Object Name
  Index,                                  !- Feature Name 1
  Integer,                                !- Feature Data Type 1
  1;                                      !- Feature Value 1

OS:AdditionalProperties,
  {9423ff03-e46d-4216-a940-80a2ae2733b8}, !- Handle
  {2638e053-c8cf-4ea5-8feb-a86c55558457}, !- Object Name
  Index,                                  !- Feature Name 1
  Integer,                                !- Feature Data Type 1
  2;                                      !- Feature Value 1

OS:AdditionalProperties,
  {50488b43-58e9-4153-a102-223c290f75a6}, !- Handle
  {8e1e209b-9ba9-47dc-82ef-3d5f3836ca6d}, !- Object Name
  Index,                                  !- Feature Name 1
  Integer,                                !- Feature Data Type 1
  6;                                      !- Feature Value 1

OS:AdditionalProperties,
  {ffa593d0-5125-4d19-a4db-f7cc632e1194}, !- Handle
  {aa9fb36e-d70a-4294-a614-21f1757aab46}, !- Object Name
  Index,                                  !- Feature Name 1
  Integer,                                !- Feature Data Type 1
  3;                                      !- Feature Value 1

OS:AdditionalProperties,
  {5e35b30a-4c45-4e32-8cc7-03233571166d}, !- Handle
  {eab21dd3-b7dd-491c-beb3-468fa79c24ab}, !- Object Name
  Index,                                  !- Feature Name 1
  Integer,                                !- Feature Data Type 1
  4;                                      !- Feature Value 1

OS:AdditionalProperties,
  {e6b8eb03-dcba-4d72-b514-04be0a2ca459}, !- Handle
  {8edfc972-aec0-4e96-aa24-4bc26735e7ea}, !- Object Name
  Index,                                  !- Feature Name 1
  Integer,                                !- Feature Data Type 1
  7;                                      !- Feature Value 1

OS:AdditionalProperties,
  {4f3ef953-af73-49a1-a17b-c6a065d415bb}, !- Handle
  {9f783673-1590-4681-b9e9-842694179b7e}, !- Object Name
  Index,                                  !- Feature Name 1
  Integer,                                !- Feature Data Type 1
  5;                                      !- Feature Value 1

OS:SpaceType,
  {d7d051f6-b814-439e-a6d0-ee80a68b7672}, !- Handle
  Space Type 1,                           !- Name
  ,                                       !- Default Construction Set Name
  ,                                       !- Default Schedule Set Name
  ,                                       !- Group Rendering Name
  ,                                       !- Design Specification Outdoor Air Object Name
  ,                                       !- Standards Template
  ,                                       !- Standards Building Type
  garage;                                 !- Standards Space Type

OS:Space,
  {26b896cf-ec1c-410e-968a-e71db5639002}, !- Handle
  conditioned space 1,                    !- Name
  {0b1e6369-3aa6-433a-82f4-460e93502eb2}, !- Space Type Name
  ,                                       !- Default Construction Set Name
  ,                                       !- Default Schedule Set Name
  -0,                                     !- Direction of Relative North {deg}
  0,                                      !- X Origin {m}
  0,                                      !- Y Origin {m}
  0.23495,                                !- Z Origin {m}
  ,                                       !- Building Story Name
  {d7de4552-7fb9-4683-b807-69ac47cc8ce5}; !- Thermal Zone Name

OS:Surface,
  {13d52245-5cae-46b0-ba2a-bddd68e2f1b1}, !- Handle
  Surface 7,                              !- Name
  Floor,                                  !- Surface Type
  ,                                       !- Construction Name
  {26b896cf-ec1c-410e-968a-e71db5639002}, !- Space Name
  Surface,                                !- Outside Boundary Condition
  {4383d367-d546-42ba-8afb-1fbc14abb896}, !- Outside Boundary Condition Object
  NoSun,                                  !- Sun Exposure
  NoWind,                                 !- Wind Exposure
  ,                                       !- View Factor to Ground
  ,                                       !- Number of Vertices
  14.1618883893357, 7.86771577185314, -2.77555756156289e-17, !- X,Y,Z Vertex 1 {m}
  14.1618883893357, 3.6576, -2.77555756156289e-17, !- X,Y,Z Vertex 2 {m}
  6.84668838933565, 3.6576, -2.77555756156289e-17, !- X,Y,Z Vertex 3 {m}
  6.84668838933565, 0, -2.77555756156289e-17, !- X,Y,Z Vertex 4 {m}
  0, 0, -2.77555756156289e-17,            !- X,Y,Z Vertex 5 {m}
  0, 7.86771577185314, -2.77555756156289e-17; !- X,Y,Z Vertex 6 {m}

OS:Surface,
  {4329fb79-d436-4847-ac9c-619c98688c6e}, !- Handle
  Surface 8,                              !- Name
  Wall,                                   !- Surface Type
  ,                                       !- Construction Name
  {26b896cf-ec1c-410e-968a-e71db5639002}, !- Space Name
  Outdoors,                               !- Outside Boundary Condition
  ,                                       !- Outside Boundary Condition Object
  SunExposed,                             !- Sun Exposure
  WindExposed,                            !- Wind Exposure
  ,                                       !- View Factor to Ground
  ,                                       !- Number of Vertices
  0, 0, 2.4384,                           !- X,Y,Z Vertex 1 {m}
  0, 7.86771577185314, 2.4384,            !- X,Y,Z Vertex 2 {m}
  0, 7.86771577185314, -2.77555756156289e-17, !- X,Y,Z Vertex 3 {m}
  0, 0, -2.77555756156289e-17;            !- X,Y,Z Vertex 4 {m}

OS:Surface,
  {9ede9856-9b1f-4b59-9b97-f5b46fe24884}, !- Handle
  Surface 9,                              !- Name
  Wall,                                   !- Surface Type
  ,                                       !- Construction Name
  {26b896cf-ec1c-410e-968a-e71db5639002}, !- Space Name
  Outdoors,                               !- Outside Boundary Condition
  ,                                       !- Outside Boundary Condition Object
  SunExposed,                             !- Sun Exposure
  WindExposed,                            !- Wind Exposure
  ,                                       !- View Factor to Ground
  ,                                       !- Number of Vertices
  0, 7.86771577185314, 2.4384,            !- X,Y,Z Vertex 1 {m}
  14.1618883893357, 7.86771577185314, 2.4384, !- X,Y,Z Vertex 2 {m}
  14.1618883893357, 7.86771577185314, -2.77555756156289e-17, !- X,Y,Z Vertex 3 {m}
  0, 7.86771577185314, -2.77555756156289e-17; !- X,Y,Z Vertex 4 {m}

OS:Surface,
  {09ea1f9b-8bed-40d1-8dca-b19d0d11cb3d}, !- Handle
  Surface 10,                             !- Name
  Wall,                                   !- Surface Type
  ,                                       !- Construction Name
  {26b896cf-ec1c-410e-968a-e71db5639002}, !- Space Name
  Outdoors,                               !- Outside Boundary Condition
  ,                                       !- Outside Boundary Condition Object
  SunExposed,                             !- Sun Exposure
  WindExposed,                            !- Wind Exposure
  ,                                       !- View Factor to Ground
  ,                                       !- Number of Vertices
  14.1618883893357, 7.86771577185314, 2.4384, !- X,Y,Z Vertex 1 {m}
  14.1618883893357, 3.6576, 2.4384,       !- X,Y,Z Vertex 2 {m}
  14.1618883893357, 3.6576, -2.77555756156289e-17, !- X,Y,Z Vertex 3 {m}
  14.1618883893357, 7.86771577185314, -2.77555756156289e-17; !- X,Y,Z Vertex 4 {m}

OS:Surface,
  {f5ebf999-9f82-4d90-b706-05a0d7ef1eea}, !- Handle
  Surface 11,                             !- Name
  Wall,                                   !- Surface Type
  ,                                       !- Construction Name
  {26b896cf-ec1c-410e-968a-e71db5639002}, !- Space Name
  Surface,                                !- Outside Boundary Condition
  {aa9fb36e-d70a-4294-a614-21f1757aab46}, !- Outside Boundary Condition Object
  NoSun,                                  !- Sun Exposure
  NoWind,                                 !- Wind Exposure
  ,                                       !- View Factor to Ground
  ,                                       !- Number of Vertices
  6.84668838933565, 3.6576, 2.4384,       !- X,Y,Z Vertex 1 {m}
  6.84668838933565, 3.6576, -2.77555756156289e-17, !- X,Y,Z Vertex 2 {m}
  14.1618883893357, 3.6576, -2.77555756156289e-17, !- X,Y,Z Vertex 3 {m}
  14.1618883893357, 3.6576, 2.4384;       !- X,Y,Z Vertex 4 {m}

OS:Surface,
  {8d31cda1-1592-46ad-a805-04fb2ce45634}, !- Handle
  Surface 12,                             !- Name
  Wall,                                   !- Surface Type
  ,                                       !- Construction Name
  {26b896cf-ec1c-410e-968a-e71db5639002}, !- Space Name
  Surface,                                !- Outside Boundary Condition
  {8e1e209b-9ba9-47dc-82ef-3d5f3836ca6d}, !- Outside Boundary Condition Object
  NoSun,                                  !- Sun Exposure
  NoWind,                                 !- Wind Exposure
  ,                                       !- View Factor to Ground
  ,                                       !- Number of Vertices
  6.84668838933565, 0, 2.4384,            !- X,Y,Z Vertex 1 {m}
  6.84668838933565, 0, -2.77555756156289e-17, !- X,Y,Z Vertex 2 {m}
  6.84668838933565, 3.6576, -2.77555756156289e-17, !- X,Y,Z Vertex 3 {m}
  6.84668838933565, 3.6576, 2.4384;       !- X,Y,Z Vertex 4 {m}

OS:Surface,
  {337ed74e-dc4e-4338-a9c2-325a92c983ba}, !- Handle
  Surface 13,                             !- Name
  Wall,                                   !- Surface Type
  ,                                       !- Construction Name
  {26b896cf-ec1c-410e-968a-e71db5639002}, !- Space Name
  Outdoors,                               !- Outside Boundary Condition
  ,                                       !- Outside Boundary Condition Object
  SunExposed,                             !- Sun Exposure
  WindExposed,                            !- Wind Exposure
  ,                                       !- View Factor to Ground
  ,                                       !- Number of Vertices
  6.84668838933565, 0, -2.77555756156289e-17, !- X,Y,Z Vertex 1 {m}
  6.84668838933565, 0, 2.4384,            !- X,Y,Z Vertex 2 {m}
  1.04865714285714, 0, 2.4384,            !- X,Y,Z Vertex 3 {m}
  1.04865714285714, 0, -2.77555756156289e-17; !- X,Y,Z Vertex 4 {m}

OS:Surface,
  {8ff7785a-7fb4-419f-8d0e-2a75071abcb3}, !- Handle
  Surface 14,                             !- Name
  RoofCeiling,                            !- Surface Type
  ,                                       !- Construction Name
  {26b896cf-ec1c-410e-968a-e71db5639002}, !- Space Name
  Surface,                                !- Outside Boundary Condition
  {415b20fc-75fe-4c95-9c5f-8bdeda006e49}, !- Outside Boundary Condition Object
  NoSun,                                  !- Sun Exposure
  NoWind,                                 !- Wind Exposure
  ,                                       !- View Factor to Ground
  ,                                       !- Number of Vertices
  6.84668838933565, 0, 2.4384,            !- X,Y,Z Vertex 1 {m}
  6.84668838933565, 3.6576, 2.4384,       !- X,Y,Z Vertex 2 {m}
  14.1618883893357, 3.6576, 2.4384,       !- X,Y,Z Vertex 3 {m}
  14.1618883893357, 7.86771577185314, 2.4384, !- X,Y,Z Vertex 4 {m}
  0, 7.86771577185314, 2.4384,            !- X,Y,Z Vertex 5 {m}
  0, 0, 2.4384;                           !- X,Y,Z Vertex 6 {m}

OS:AdditionalProperties,
  {5fdbbdc5-2208-4bf6-8924-29dc86b784fa}, !- Handle
  {26b896cf-ec1c-410e-968a-e71db5639002}, !- Object Name
  Index,                                  !- Feature Name 1
  Integer,                                !- Feature Data Type 1
  8;                                      !- Feature Value 1

OS:AdditionalProperties,
  {99ed7131-0f78-4668-bf99-929bca8a686e}, !- Handle
  {9ede9856-9b1f-4b59-9b97-f5b46fe24884}, !- Object Name