
OS:Version,
  {b3ab8988-9804-4b54-92ac-deadb24b9f06}, !- Handle
  3.7.0;                                  !- Version Identifier

OS:ThermalZone,
  {198706f3-9583-4d01-9480-6b9bf342f8a8}, !- Handle
  conditioned space,                      !- Name
  ,                                       !- Multiplier
  ,                                       !- Ceiling Height {m}
  ,                                       !- Volume {m3}
  ,                                       !- Floor Area {m2}
  ,                                       !- Zone Inside Convection Algorithm
  ,                                       !- Zone Outside Convection Algorithm
  ,                                       !- Zone Conditioning Equipment List Name
  {820dab7b-16bf-4e7b-b33b-0b3ebf53d4c1}, !- Zone Air Inlet Port List
  {953e6b02-6a49-4d9a-ad51-d075d75b936c}, !- Zone Air Exhaust Port List
  {5ed6db61-2345-424e-81d3-621d407e0934}, !- Zone Air Node Name
  {95fc4f11-b7db-4759-bdcc-b8fdf90ffec6}, !- Zone Return Air Port List
  ,                                       !- Primary Daylighting Control Name
  ,                                       !- Fraction of Zone Controlled by Primary Daylighting Control
  ,                                       !- Secondary Daylighting Control Name
  ,                                       !- Fraction of Zone Controlled by Secondary Daylighting Control
  ,                                       !- Illuminance Map Name
  ,                                       !- Group Rendering Name
  ,                                       !- Thermostat Name
  No;                                     !- Use Ideal Air Loads

OS:Node,
  {54aa63bb-b891-460c-9152-c1cc29fe5d53}, !- Handle
  Node 1,                                 !- Name
  {5ed6db61-2345-424e-81d3-621d407e0934}, !- Inlet Port
  ;                                       !- Outlet Port

OS:Connection,
  {5ed6db61-2345-424e-81d3-621d407e0934}, !- Handle
  {198706f3-9583-4d01-9480-6b9bf342f8a8}, !- Source Object
  11,                                     !- Outlet Port
  {54aa63bb-b891-460c-9152-c1cc29fe5d53}, !- Target Object
  2;                                      !- Inlet Port

OS:PortList,
  {820dab7b-16bf-4e7b-b33b-0b3ebf53d4c1}, !- Handle
  {198706f3-9583-4d01-9480-6b9bf342f8a8}; !- HVAC Component

OS:PortList,
  {953e6b02-6a49-4d9a-ad51-d075d75b936c}, !- Handle
  {198706f3-9583-4d01-9480-6b9bf342f8a8}; !- HVAC Component

OS:PortList,
  {95fc4f11-b7db-4759-bdcc-b8fdf90ffec6}, !- Handle
  {198706f3-9583-4d01-9480-6b9bf342f8a8}; !- HVAC Component

OS:Sizing:Zone,
  {6e39da35-a814-4e32-946d-74bf315e2109}, !- Handle
  {198706f3-9583-4d01-9480-6b9bf342f8a8}, !- Zone or ZoneList Name
  SupplyAirTemperature,                   !- Zone Cooling Design Supply Air Temperature Input Method
  14,                                     !- Zone Cooling Design Supply Air Temperature {C}
  11.11,                                  !- Zone Cooling Design Supply Air Temperature Difference {deltaC}
  SupplyAirTemperature,                   !- Zone Heating Design Supply Air Temperature Input Method
  40,                                     !- Zone Heating Design Supply Air Temperature {C}
  11.11,                                  !- Zone Heating Design Supply Air Temperature Difference {deltaC}
  0.0085,                                 !- Zone Cooling Design Supply Air Humidity Ratio {kg-H2O/kg-air}
  0.008,                                  !- Zone Heating Design Supply Air Humidity Ratio {kg-H2O/kg-air}
  ,                                       !- Zone Heating Sizing Factor
  ,                                       !- Zone Cooling Sizing Factor
  DesignDay,                              !- Cooling Design Air Flow Method
  ,                                       !- Cooling Design Air Flow Rate {m3/s}
  ,                                       !- Cooling Minimum Air Flow per Zone Floor Area {m3/s-m2}
  ,                                       !- Cooling Minimum Air Flow {m3/s}
  ,                                       !- Cooling Minimum Air Flow Fraction
  DesignDay,                              !- Heating Design Air Flow Method
  ,                                       !- Heating Design Air Flow Rate {m3/s}
  ,                                       !- Heating Maximum Air Flow per Zone Floor Area {m3/s-m2}
  ,                                       !- Heating Maximum Air Flow {m3/s}
  ,                                       !- Heating Maximum Air Flow Fraction
  No,                                     !- Account for Dedicated Outdoor Air System
  NeutralSupplyAir,                       !- Dedicated Outdoor Air System Control Strategy
  autosize,                               !- Dedicated Outdoor Air Low Setpoint Temperature for Design {C}
  autosize,                               !- Dedicated Outdoor Air High Setpoint Temperature for Design {C}
  Sensible Load Only No Latent Load,      !- Zone Load Sizing Method
  HumidityRatioDifference,                !- Zone Latent Cooling Design Supply Air Humidity Ratio Input Method
  ,                                       !- Zone Dehumidification Design Supply Air Humidity Ratio {kgWater/kgDryAir}
  0.005,                                  !- Zone Cooling Design Supply Air Humidity Ratio Difference {kgWater/kgDryAir}
  HumidityRatioDifference,                !- Zone Latent Heating Design Supply Air Humidity Ratio Input Method
  ,                                       !- Zone Humidification Design Supply Air Humidity Ratio {kgWater/kgDryAir}
  0.005;                                  !- Zone Humidification Design Supply Air Humidity Ratio Difference {kgWater/kgDryAir}

OS:ZoneHVAC:EquipmentList,
  {f6875229-698d-4efe-89a5-d43b7574150a}, !- Handle
  Zone HVAC Equipment List 1,             !- Name
  {198706f3-9583-4d01-9480-6b9bf342f8a8}; !- Thermal Zone

OS:Space,
  {e7311fb7-f59e-43b7-9e39-e4310825d913}, !- Handle
  conditioned space 1,                    !- Name
  {0e66d6db-345f-44c6-aade-f164b2a73fad}, !- Space Type Name
  ,                                       !- Default Construction Set Name
  ,                                       !- Default Schedule Set Name
  ,                                       !- Direction of Relative North {deg}
  ,                                       !- X Origin {m}
  ,                                       !- Y Origin {m}
  ,                                       !- Z Origin {m}
  ,                                       !- Building Story Name
  {198706f3-9583-4d01-9480-6b9bf342f8a8}; !- Thermal Zone Name

OS:Surface,
  {11b6629c-9998-49e0-8c6f-53ddf7488439}, !- Handle
  Surface 1,                              !- Name
  Floor,                                  !- Surface Type
  ,                                       !- Construction Name
  {e7311fb7-f59e-43b7-9e39-e4310825d913}, !- Space Name
  Adiabatic,                              !- Outside Boundary Condition
  ,                                       !- Outside Boundary Condition Object
  NoSun,                                  !- Sun Exposure
  NoWind,                                 !- Wind Exposure
  ,                                       !- View Factor to Ground
  ,                                       !- Number of Vertices
  0, -10.2065241490521, 0,                !- X,Y,Z Vertex 1 {m}
  0, 0, 0,                                !- X,Y,Z Vertex 2 {m}
  5.67074481721334, 0, 0,                 !- X,Y,Z Vertex 3 {m}
  5.67074481721334, -10.2065241490521, 0; !- X,Y,Z Vertex 4 {m}

OS:Surface,
  {f9fb41df-d8a6-48b3-8269-d178628df985}, !- Handle
  Surface 2,                              !- Name
  Wall,                                   !- Surface Type
  ,                                       !- Construction Name
  {e7311fb7-f59e-43b7-9e39-e4310825d913}, !- Space Name
  Adiabatic,                              !- Outside Boundary Condition
  ,                                       !- Outside Boundary Condition Object
  NoSun,                                  !- Sun Exposure
  NoWind,                                 !- Wind Exposure
  ,                                       !- View Factor to Ground
  ,                                       !- Number of Vertices
  0, -10.2065241490521, 2.4384,           !- X,Y,Z Vertex 1 {m}
  0, 0, 2.4384,                           !- X,Y,Z Vertex 2 {m}
  0, 0, 0,                                !- X,Y,Z Vertex 3 {m}
  0, -10.2065241490521, 0;                !- X,Y,Z Vertex 4 {m}

OS:Surface,
  {2313fb70-7c90-4b95-8480-9e13d98014ba}, !- Handle
  Surface 3,                              !- Name
  Wall,                                   !- Surface Type
  ,                                       !- Construction Name
  {e7311fb7-f59e-43b7-9e39-e4310825d913}, !- Space Name
  Outdoors,                               !- Outside Boundary Condition
  ,                                       !- Outside Boundary Condition Object
  SunExposed,                             !- Sun Exposure
  WindExposed,                            !- Wind Exposure
  ,                                       !- View Factor to Ground
  ,                                       !- Number of Vertices
  0, 0, 2.4384,                           !- X,Y,Z Vertex 1 {m}
  5.67074481721334, 0, 2.4384,            !- X,Y,Z Vertex 2 {m}
  5.67074481721334, 0, 0,                 !- X,Y,Z Vertex 3 {m}
  0, 0, 0;                                !- X,Y,Z Vertex 4 {m}

OS:Surface,
  {230c272c-6bf6-46a9-adf4-18fccea425e7}, !- Handle
  Surface 4,                              !- Name
  Wall,                                   !- Surface Type
  ,                                       !- Construction Name
  {e7311fb7-f59e-43b7-9e39-e4310825d913}, !- Space Name
  Outdoors,                               !- Outside Boundary Condition
  ,                                       !- Outside Boundary Condition Object
  SunExposed,                             !- Sun Exposure
  WindExposed,                            !- Wind Exposure
  ,                                       !- View Factor to Ground
  ,                                       !- Number of Vertices
  5.67074481721334, 0, 2.4384,            !- X,Y,Z Vertex 1 {m}
  5.67074481721334, -10.2065241490521, 2.4384, !- X,Y,Z Vertex 2 {m}
  5.67074481721334, -10.2065241490521, 0, !- X,Y,Z Vertex 3 {m}
  5.67074481721334, 0, 0;                 !- X,Y,Z Vertex 4 {m}

OS:Surface,
  {a858d847-f623-4f6b-aedd-aaa2c79f572a}, !- Handle
  Surface 5,                              !- Name
  Wall,                                   !- Surface Type
  ,                                       !- Construction Name
  {e7311fb7-f59e-43b7-9e39-e4310825d913}, !- Space Name
  Adiabatic,                              !- Outside Boundary Condition
  ,                                       !- Outside Boundary Condition Object
  NoSun,                                  !- Sun Exposure
  NoWind,                                 !- Wind Exposure
  ,                                       !- View Factor to Ground
  ,                                       !- Number of Vertices
  5.67074481721334, -10.2065241490521, 2.4384, !- X,Y,Z Vertex 1 {m}
  0, -10.2065241490521, 2.4384,           !- X,Y,Z Vertex 2 {m}
  0, -10.2065241490521, 0,                !- X,Y,Z Vertex 3 {m}
  5.67074481721334, -10.2065241490521, 0; !- X,Y,Z Vertex 4 {m}

OS:Surface,
  {7b1f14d1-65b5-4b69-aec5-578e48c9da4b}, !- Handle
  Surface 6,                              !- Name
  RoofCeiling,                            !- Surface Type
  ,                                       !- Construction Name
  {e7311fb7-f59e-43b7-9e39-e4310825d913}, !- Space Name
  Outdoors,                               !- Outside Boundary Condition
  ,                                       !- Outside Boundary Condition Object
  SunExposed,                             !- Sun Exposure
  WindExposed,                            !- Wind Exposure
  ,                                       !- View Factor to Ground
  ,                                       !- Number of Vertices
  5.67074481721334, -10.2065241490521, 2.4384, !- X,Y,Z Vertex 1 {m}
  5.67074481721334, 0, 2.4384,            !- X,Y,Z Vertex 2 {m}
  0, 0, 2.4384,                           !- X,Y,Z Vertex 3 {m}
  0, -10.2065241490521, 2.4384;           !- X,Y,Z Vertex 4 {m}

OS:AdditionalProperties,
  {78781d28-af52-4c10-9863-9914dd02e23f}, !- Handle
  {e7311fb7-f59e-43b7-9e39-e4310825d913}, !- Object Name
  Index,                                  !- Feature Name 1
  Integer,                                !- Feature Data Type 1
  1;                                      !- Feature Value 1

OS:AdditionalProperties,
  {20bc9a0e-f423-4375-8b8c-1f8e34fdeca2}, !- Handle
  {11b6629c-9998-49e0-8c6f-53ddf7488439}, !- Object Name
  Index,                                  !- Feature Name 1
  Integer,                                !- Feature Data Type 1
  2;                                      !- Feature Value 1

OS:AdditionalProperties,
  {d7650314-a655-4749-9c3a-abf75acb594a}, !- Handle
  {f9fb41df-d8a6-48b3-8269-d178628df985}, !- Object Name
  Index,                                  !- Feature Name 1
  Integer,                                !- Feature Data Type 1
  6;                                      !- Feature Value 1

OS:AdditionalProperties,
  {8b275d38-635c-4768-8688-16cf8769308d}, !- Handle
  {a858d847-f623-4f6b-aedd-aaa2c79f572a}, !- Object Name
  Index,                                  !- Feature Name 1
  Integer,                                !- Feature Data Type 1
  5;                                      !- Feature Value 1

OS:AdditionalProperties,
  {1ae58166-79d4-4ec4-a082-6be5fbe7c02b}, !- Handle
  {2313fb70-7c90-4b95-8480-9e13d98014ba}, !- Object Name
  Index,                                  !- Feature Name 1
  Integer,                                !- Feature Data Type 1
  3;                                      !- Feature Value 1

OS:AdditionalProperties,
  {52694fec-3717-4e97-b384-b701b7f63725}, !- Handle
  {7b1f14d1-65b5-4b69-aec5-578e48c9da4b}, !- Object Name
  Index,                                  !- Feature Name 1
  Integer,                                !- Feature Data Type 1
  7;                                      !- Feature Value 1

OS:AdditionalProperties,
  {84ad9987-d97c-460b-9ec0-8b24cbe6757b}, !- Handle
  {230c272c-6bf6-46a9-adf4-18fccea425e7}, !- Object Name
  Index,                                  !- Feature Name 1
  Integer,                                !- Feature Data Type 1
  4;                                      !- Feature Value 1

OS:SpaceType,
  {0e66d6db-345f-44c6-aade-f164b2a73fad}, !- Handle
  Space Type 1,                           !- Name
  ,                                       !- Default Construction Set Name
  ,                                       !- Default Schedule Set Name
  ,                                       !- Group Rendering Name
  ,                                       !- Design Specification Outdoor Air Object Name
  ,                                       !- Standards Template
  ,                                       !- Standards Building Type
  conditioned space;                      !- Standards Space Type

OS:SubSurface,
  {7449831b-461a-458b-af71-3894b3d5364c}, !- Handle
  Surface 5 - Door,                       !- Name
  Door,                                   !- Sub Surface Type
  ,                                       !- Construction Name
  {a858d847-f623-4f6b-aedd-aaa2c79f572a}, !- Surface Name
  ,                                       !- Outside Boundary Condition Object
  ,                                       !- View Factor to Ground
  ,                                       !- Frame and Divider Name
  ,                                       !- Multiplier
  ,                                       !- Number of Vertices
  0.1524, -10.206523656, 2.1336,          !- X,Y,Z Vertex 1 {m}
  0.1524, -10.206523656, 0,               !- X,Y,Z Vertex 2 {m}
  1.02325714285714, -10.206523656, 0,     !- X,Y,Z Vertex 3 {m}
  1.02325714285714, -10.206523656, 2.1336; !- X,Y,Z Vertex 4 {m}

OS:AdditionalProperties,
  {3b9664b7-a58a-4f70-9062-338771eef6ab}, !- Handle
  {7449831b-461a-458b-af71-3894b3d5364c}, !- Object Name
  Index,                                  !- Feature Name 1
  Integer,                                !- Feature Data Type 1
  8;                                      !- Feature Value 1

OS:SubSurface,
  {71b09d4b-da0a-462b-ad14-e7759782cb50}, !- Handle
  Surface 3 - Window 1,                   !- Name
  FixedWindow,                            !- Sub Surface Type
  ,                                       !- Construction Name
  {2313fb70-7c90-4b95-8480-9e13d98014ba}, !- Surface Name
  ,                                       !- Outside Boundary Condition Object
  ,                                       !- View Factor to Ground
  ,                                       !- Frame and Divider Name
  ,                                       !- Multiplier
  ,                                       !- Number of Vertices
  4.59989759460271, 0, 2.1336,            !- X,Y,Z Vertex 1 {m}
  4.59989759460271, 0, 1.08196936993059,  !- X,Y,Z Vertex 2 {m}
  3.810977392, 0, 1.08196936993059,       !- X,Y,Z Vertex 3 {m}
  3.810977392, 0, 2.1336;                 !- X,Y,Z Vertex 4 {m}

OS:AdditionalProperties,
  {dd88477e-8e97-45cf-a090-0b465aa18dce}, !- Handle
  {71b09d4b-da0a-462b-ad14-e7759782cb50}, !- Object Name
  Index,                                  !- Feature Name 1
  Integer,                                !- Feature Data Type 1
  9;                                      !- Feature Value 1

OS:SubSurface,
  {4d0cddda-6e6e-4783-9f55-d9c89a04554b}, !- Handle
  Surface 3 - Window 2,                   !- Name
  FixedWindow,                            !- Sub Surface Type
  ,                                       !- Construction Name
  {2313fb70-7c90-4b95-8480-9e13d98014ba}, !- Surface Name
  ,                                       !- Outside Boundary Condition Object
  ,                                       !- View Factor to Ground
  ,                                       !- Frame and Divider Name
  ,                                       !- Multiplier
  ,                                       !- Number of Vertices
  3.750017392, 0, 2.1336,                 !- X,Y,Z Vertex 1 {m}
  3.750017392, 0, 1.08196936993059,       !- X,Y,Z Vertex 2 {m}
  2.96109718939729, 0, 1.08196936993059,  !- X,Y,Z Vertex 3 {m}
  2.96109718939729, 0, 2.1336;            !- X,Y,Z Vertex 4 {m}

OS:AdditionalProperties,
  {65e3dca2-7374-4d51-92c6-c40c56cf3147}, !- Handle
  {4d0cddda-6e6e-4783-9f55-d9c89a04554b}, !- Object Name
  Index,                                  !- Feature Name 1
  Integer,                                !- Feature Data Type 1
  10;                                     !- Feature Value 1

OS:SubSurface,
  {d1840ace-b264-47bc-a1c4-570559c16ffa}, !- Handle
  Surface 3 - Window 3,                   !- Name
  FixedWindow,                            !- Sub Surface Type
  ,                                       !- Construction Name
  {2313fb70-7c90-4b95-8480-9e13d98014ba}, !- Surface Name
  ,                                       !- Outside Boundary Condition Object
  ,                                       !- View Factor to Ground
  ,                                       !- Frame and Divider Name
  ,                                       !- Multiplier
  ,                                       !- Number of Vertices
  2.28470879730136, 0, 2.1336,            !- X,Y,Z Vertex 1 {m}
  2.28470879730136, 0, 1.08196936993059,  !- X,Y,Z Vertex 2 {m}
  1.49578859469864, 0, 1.08196936993059,  !- X,Y,Z Vertex 3 {m}
  1.49578859469864, 0, 2.1336;            !- X,Y,Z Vertex 4 {m}

OS:AdditionalProperties,
  {742013b7-518a-4e7c-92b5-ae6247b2e592}, !- Handle
  {d1840ace-b264-47bc-a1c4-570559c16ffa}, !- Object Name
  Index,                                  !- Feature Name 1
  Integer,                                !- Feature Data Type 1
  11;                                     !- Feature Value 1

OS:SubSurface,
  {d17bc36b-84c8-4656-8cab-9ff3f676d833}, !- Handle
  Surface 4 - Window 1,                   !- Name
  FixedWindow,                            !- Sub Surface Type
  ,                                       !- Construction Name
  {230c272c-6bf6-46a9-adf4-18fccea425e7}, !- Surface Name
  ,                                       !- Outside Boundary Condition Object
  ,                                       !- View Factor to Ground
  ,                                       !- Frame and Divider Name
  ,                                       !- Multiplier
  ,                                       !- Number of Vertices
  5.670746088, -8.50520987358584, 2.1336, !- X,Y,Z Vertex 1 {m}
  5.670746088, -8.50520987358584, 1.04075710359608, !- X,Y,Z Vertex 2 {m}
  5.670746088, -7.685372742, 1.04075710359608, !- X,Y,Z Vertex 3 {m}
  5.670746088, -7.685372742, 2.1336;      !- X,Y,Z Vertex 4 {m}

OS:AdditionalProperties,
  {2c64d1a4-a3d9-4a99-94a2-30be79382c61}, !- Handle
  {d17bc36b-84c8-4656-8cab-9ff3f676d833}, !- Object Name
  Index,                                  !- Feature Name 1
  Integer,                                !- Feature Data Type 1
  12;                                     !- Feature Value 1

OS:SubSurface,
  {a5e0896e-5030-4329-8e8e-49b9ecabc942}, !- Handle
  Surface 4 - Window 2,                   !- Name
  FixedWindow,                            !- Sub Surface Type
  ,                                       !- Construction Name
  {230c272c-6bf6-46a9-adf4-18fccea425e7}, !- Surface Name
  ,                                       !- Outside Boundary Condition Object
  ,                                       !- View Factor to Ground
  ,                                       !- Frame and Divider Name
  ,                                       !- Multiplier
  ,                                       !- Number of Vertices
  5.670746088, -7.624412742, 2.1336,      !- X,Y,Z Vertex 1 {m}
  5.670746088, -7.624412742, 1.04075710359608, !- X,Y,Z Vertex 2 {m}
  5.670746088, -6.80457561041416, 1.04075710359608, !- X,Y,Z Vertex 3 {m}
  5.670746088, -6.80457561041416, 2.1336; !- X,Y,Z Vertex 4 {m}

OS:AdditionalProperties,
  {92f29bb0-16a5-454e-b4bf-61a4281d80ee}, !- Handle
  {a5e0896e-5030-4329-8e8e-49b9ecabc942}, !- Object Name
  Index,                                  !- Feature Name 1
  Integer,                                !- Feature Data Type 1
  13;                                     !- Feature Value 1

OS:SubSurface,
  {0ffd69db-3eb6-4768-ba3b-99c0f1f67836}, !- Handle
  Surface 4 - Window 3,                   !- Name
  FixedWindow,                            !- Sub Surface Type
  ,                                       !- Construction Name
  {230c272c-6bf6-46a9-adf4-18fccea425e7}, !- Surface Name
  ,                                       !- Outside Boundary Condition Object
  ,                                       !- View Factor to Ground
  ,                                       !- Frame and Divider Name
  ,                                       !- Multiplier
  ,                                       !- Number of Vertices
  5.670746088, -5.95357895958584, 2.1336, !- X,Y,Z Vertex 1 {m}
  5.670746088, -5.95357895958584, 1.04075710359608, !- X,Y,Z Vertex 2 {m}
  5.670746088, -5.133741828, 1.04075710359608, !- X,Y,Z Vertex 3 {m}
  5.670746088, -5.133741828, 2.1336;      !- X,Y,Z Vertex 4 {m}

OS:AdditionalProperties,
  {ed9cd54f-face-4bf9-8b59-3cb3b65089c5}, !- Handle
  {0ffd69db-3eb6-4768-ba3b-99c0f1f67836}, !- Object Name
  Index,                                  !- Feature Name 1
  Integer,                                !- Feature Data Type 1
  14;                                     !- Feature Value 1

OS:SubSurface,
  {3cd879b3-3c3c-4fbf-b686-0b22924c9e94}, !- Handle
  Surface 4 - Window 4,                   !- Name
  FixedWindow,                            !- Sub Surface Type
  ,                                       !- Construction Name
  {230c272c-6bf6-46a9-adf4-18fccea425e7}, !- Surface Name
  ,                                       !- Outside Boundary Condition Object
  ,                                       !- View Factor to Ground
  ,                                       !- Frame and Divider Name
  ,                                       !- Multiplier
  ,                                       !- Number of Vertices
  5.670746088, -5.072781828, 2.1336,      !- X,Y,Z Vertex 1 {m}
  5.670746088, -5.072781828, 1.04075710359608, !- X,Y,Z Vertex 2 {m}
  5.670746088, -4.25294469641416, 1.04075710359608, !- X,Y,Z Vertex 3 {m}
  5.670746088, -4.25294469641416, 2.1336; !- X,Y,Z Vertex 4 {m}

OS:AdditionalProperties,
  {f57e0f0d-f007-45e7-9e47-f168874593b0}, !- Handle
  {3cd879b3-3c3c-4fbf-b686-0b22924c9e94}, !- Object Name
  Index,                                  !- Feature Name 1
  Integer,                                !- Feature Data Type 1
  15;                                     !- Feature Value 1

OS:SubSurface,
  {95f4a707-ec2b-48b5-ba23-179db3dce6ea}, !- Handle
  Surface 4 - Window 5,                   !- Name
  FixedWindow,                            !- Sub Surface Type
  ,                                       !- Construction Name
  {230c272c-6bf6-46a9-adf4-18fccea425e7}, !- Surface Name
  ,                                       !- Outside Boundary Condition Object
  ,                                       !- View Factor to Ground
  ,                                       !- Frame and Divider Name
  ,                                       !- Multiplier
  ,                                       !- Number of Vertices
  5.670746088, -2.96154947979292, 2.1336, !- X,Y,Z Vertex 1 {m}
  5.670746088, -2.96154947979292, 1.04075710359608, !- X,Y,Z Vertex 2 {m}
  5.670746088, -2.14171234820708, 1.04075710359608, !- X,Y,Z Vertex 3 {m}
  5.670746088, -2.14171234820708, 2.1336; !- X,Y,Z Vertex 4 {m}

OS:AdditionalProperties,
  {cefb6903-2584-4dfa-8fd2-2e4903cc86ac}, !- Handle
  {95f4a707-ec2b-48b5-ba23-179db3dce6ea}, !- Object Name
  Index,                                  !- Feature Name 1
  Integer,                                !- Feature Data Type 1
  16;                                     !- Feature Value 1

