
OS:Version,
  {4781dc6c-50cf-48f8-ab5e-ea857bdc7794}, !- Handle
  3.7.0;                                  !- Version Identifier

OS:ThermalZone,
  {852982e9-bb97-4813-b137-34542d585105}, !- Handle
  conditioned space,                      !- Name
  ,                                       !- Multiplier
  ,                                       !- Ceiling Height {m}
  ,                                       !- Volume {m3}
  ,                                       !- Floor Area {m2}
  ,                                       !- Zone Inside Convection Algorithm
  ,                                       !- Zone Outside Convection Algorithm
  ,                                       !- Zone Conditioning Equipment List Name
  {b0527544-47ec-4716-bfd2-c32974b03a47}, !- Zone Air Inlet Port List
  {7afb4658-b7b8-4a27-a5e7-0c72110331ec}, !- Zone Air Exhaust Port List
  {6bcc92e6-9ff5-4ffe-ae06-274c09b1487a}, !- Zone Air Node Name
  {8c089476-53c7-4b20-ac34-5c9847bb6bfa}, !- Zone Return Air Port List
  ,                                       !- Primary Daylighting Control Name
  ,                                       !- Fraction of Zone Controlled by Primary Daylighting Control
  ,                                       !- Secondary Daylighting Control Name
  ,                                       !- Fraction of Zone Controlled by Secondary Daylighting Control
  ,                                       !- Illuminance Map Name
  ,                                       !- Group Rendering Name
  ,                                       !- Thermostat Name
  No;                                     !- Use Ideal Air Loads

OS:Node,
  {bc6a4b40-2167-432e-9458-8a01367fbde3}, !- Handle
  Node 1,                                 !- Name
  {6bcc92e6-9ff5-4ffe-ae06-274c09b1487a}, !- Inlet Port
  ;                                       !- Outlet Port

OS:Connection,
  {6bcc92e6-9ff5-4ffe-ae06-274c09b1487a}, !- Handle
  {852982e9-bb97-4813-b137-34542d585105}, !- Source Object
  11,                                     !- Outlet Port
  {bc6a4b40-2167-432e-9458-8a01367fbde3}, !- Target Object
  2;                                      !- Inlet Port

OS:PortList,
  {b0527544-47ec-4716-bfd2-c32974b03a47}, !- Handle
  {852982e9-bb97-4813-b137-34542d585105}; !- HVAC Component

OS:PortList,
  {7afb4658-b7b8-4a27-a5e7-0c72110331ec}, !- Handle
  {852982e9-bb97-4813-b137-34542d585105}; !- HVAC Component

OS:PortList,
  {8c089476-53c7-4b20-ac34-5c9847bb6bfa}, !- Handle
  {852982e9-bb97-4813-b137-34542d585105}; !- HVAC Component

OS:Sizing:Zone,
  {da209795-7b24-4747-b08c-06bc64669abd}, !- Handle
  {852982e9-bb97-4813-b137-34542d585105}, !- Zone or ZoneList Name
  SupplyAirTemperature,                   !- Zone Cooling Design Supply Air Temperature Input Method
  14,                                     !- Zone Cooling Design Supply Air Temperature {C}
  11.11,                                  !- Zone Cooling Design Supply Air Temperature Difference {deltaC}
  SupplyAirTemperature,                   !- Zone Heating Design Supply Air Temperature Input Method
  40,                                     !- Zone Heating Design Supply Air Temperature {C}
  11.11,                                  !- Zone Heating Design Supply Air Temperature Difference {deltaC}
  0.0085,                                 !- Zone Cooling Design Supply Air Humidity Ratio {kg-H2O/kg-air}
  0.008,                                  !- Zone Heating Design Supply Air Humidity Ratio {kg-H2O/kg-air}
  ,                                       !- Zone Heating Sizing Factor
  ,                                       !- Zone Cooling Sizing Factor
  DesignDay,                              !- Cooling Design Air Flow Method
  ,                                       !- Cooling Design Air Flow Rate {m3/s}
  ,                                       !- Cooling Minimum Air Flow per Zone Floor Area {m3/s-m2}
  ,                                       !- Cooling Minimum Air Flow {m3/s}
  ,                                       !- Cooling Minimum Air Flow Fraction
  DesignDay,                              !- Heating Design Air Flow Method
  ,                                       !- Heating Design Air Flow Rate {m3/s}
  ,                                       !- Heating Maximum Air Flow per Zone Floor Area {m3/s-m2}
  ,                                       !- Heating Maximum Air Flow {m3/s}
  ,                                       !- Heating Maximum Air Flow Fraction
  No,                                     !- Account for Dedicated Outdoor Air System
  NeutralSupplyAir,                       !- Dedicated Outdoor Air System Control Strategy
  autosize,                               !- Dedicated Outdoor Air Low Setpoint Temperature for Design {C}
  autosize,                               !- Dedicated Outdoor Air High Setpoint Temperature for Design {C}
  Sensible Load Only No Latent Load,      !- Zone Load Sizing Method
  HumidityRatioDifference,                !- Zone Latent Cooling Design Supply Air Humidity Ratio Input Method
  ,                                       !- Zone Dehumidification Design Supply Air Humidity Ratio {kgWater/kgDryAir}
  0.005,                                  !- Zone Cooling Design Supply Air Humidity Ratio Difference {kgWater/kgDryAir}
  HumidityRatioDifference,                !- Zone Latent Heating Design Supply Air Humidity Ratio Input Method
  ,                                       !- Zone Humidification Design Supply Air Humidity Ratio {kgWater/kgDryAir}
  0.005;                                  !- Zone Humidification Design Supply Air Humidity Ratio Difference {kgWater/kgDryAir}

OS:ZoneHVAC:EquipmentList,
  {f3c8daa3-f950-4c1d-abd6-f136eaa7999c}, !- Handle
  Zone HVAC Equipment List 1,             !- Name
  {852982e9-bb97-4813-b137-34542d585105}; !- Thermal Zone

OS:Space,
  {25cc532e-6b3f-43e0-a773-3646ad1e2668}, !- Handle
  conditioned space 1,                    !- Name
  {3f91d03a-6735-4b24-b345-886594b45356}, !- Space Type Name
  ,                                       !- Default Construction Set Name
  ,                                       !- Default Schedule Set Name
  ,                                       !- Direction of Relative North {deg}
  ,                                       !- X Origin {m}
  ,                                       !- Y Origin {m}
  ,                                       !- Z Origin {m}
  ,                                       !- Building Story Name
  {852982e9-bb97-4813-b137-34542d585105}; !- Thermal Zone Name

OS:Surface,
  {3efa0b93-679c-4ce8-a8c1-991eebd7a879}, !- Handle
  Surface 1,                              !- Name
  Floor,                                  !- Surface Type
  ,                                       !- Construction Name
  {25cc532e-6b3f-43e0-a773-3646ad1e2668}, !- Space Name
  Adiabatic,                              !- Outside Boundary Condition
  ,                                       !- Outside Boundary Condition Object
  NoSun,                                  !- Sun Exposure
  NoWind,                                 !- Wind Exposure
  ,                                       !- View Factor to Ground
  ,                                       !- Number of Vertices
  0, -10.2065241490521, 0,                !- X,Y,Z Vertex 1 {m}
  0, 0, 0,                                !- X,Y,Z Vertex 2 {m}
  5.67074481721334, 0, 0,                 !- X,Y,Z Vertex 3 {m}
  5.67074481721334, -10.2065241490521, 0; !- X,Y,Z Vertex 4 {m}

OS:Surface,
  {a7bc35ff-db7b-4de9-a365-670e6071f74f}, !- Handle
  Surface 2,                              !- Name
  Wall,                                   !- Surface Type
  ,                                       !- Construction Name
  {25cc532e-6b3f-43e0-a773-3646ad1e2668}, !- Space Name
  Adiabatic,                              !- Outside Boundary Condition
  ,                                       !- Outside Boundary Condition Object
  NoSun,                                  !- Sun Exposure
  NoWind,                                 !- Wind Exposure
  ,                                       !- View Factor to Ground
  ,                                       !- Number of Vertices
  0, -10.2065241490521, 2.4384,           !- X,Y,Z Vertex 1 {m}
  0, 0, 2.4384,                           !- X,Y,Z Vertex 2 {m}
  0, 0, 0,                                !- X,Y,Z Vertex 3 {m}
  0, -10.2065241490521, 0;                !- X,Y,Z Vertex 4 {m}

OS:Surface,
  {f7beda4f-24f4-44ca-8462-516928b7b05b}, !- Handle
  Surface 3,                              !- Name
  Wall,                                   !- Surface Type
  ,                                       !- Construction Name
  {25cc532e-6b3f-43e0-a773-3646ad1e2668}, !- Space Name
  Outdoors,                               !- Outside Boundary Condition
  ,                                       !- Outside Boundary Condition Object
  SunExposed,                             !- Sun Exposure
  WindExposed,                            !- Wind Exposure
  ,                                       !- View Factor to Ground
  ,                                       !- Number of Vertices
  0, 0, 2.4384,                           !- X,Y,Z Vertex 1 {m}
  5.67074481721334, 0, 2.4384,            !- X,Y,Z Vertex 2 {m}
  5.67074481721334, 0, 0,                 !- X,Y,Z Vertex 3 {m}
  0, 0, 0;                                !- X,Y,Z Vertex 4 {m}

OS:Surface,
  {4329f9bb-28f4-43b0-847c-6fc76c2965f1}, !- Handle
  Surface 4,                              !- Name
  Wall,                                   !- Surface Type
  ,                                       !- Construction Name
  {25cc532e-6b3f-43e0-a773-3646ad1e2668}, !- Space Name
  Outdoors,                               !- Outside Boundary Condition
  ,                                       !- Outside Boundary Condition Object
  SunExposed,                             !- Sun Exposure
  WindExposed,                            !- Wind Exposure
  ,                                       !- View Factor to Ground
  ,                                       !- Number of Vertices
  5.67074481721334, 0, 2.4384,            !- X,Y,Z Vertex 1 {m}
  5.67074481721334, -10.2065241490521, 2.4384, !- X,Y,Z Vertex 2 {m}
  5.67074481721334, -10.2065241490521, 0, !- X,Y,Z Vertex 3 {m}
  5.67074481721334, 0, 0;                 !- X,Y,Z Vertex 4 {m}

OS:Surface,
  {d24047a5-3d3a-411d-9e03-d0cc0d7a901b}, !- Handle
  Surface 5,                              !- Name
  Wall,                                   !- Surface Type
  ,                                       !- Construction Name
  {25cc532e-6b3f-43e0-a773-3646ad1e2668}, !- Space Name
  Adiabatic,                              !- Outside Boundary Condition
  ,                                       !- Outside Boundary Condition Object
  NoSun,                                  !- Sun Exposure
  NoWind,                                 !- Wind Exposure
  ,                                       !- View Factor to Ground
  ,                                       !- Number of Vertices
  5.67074481721334, -10.2065241490521, 2.4384, !- X,Y,Z Vertex 1 {m}
  0, -10.2065241490521, 2.4384,           !- X,Y,Z Vertex 2 {m}
  0, -10.2065241490521, 0,                !- X,Y,Z Vertex 3 {m}
  5.67074481721334, -10.2065241490521, 0; !- X,Y,Z Vertex 4 {m}

OS:Surface,
  {3bedd0db-6fd0-4f0c-b488-bb3533d86cb0}, !- Handle
  Surface 6,                              !- Name
  RoofCeiling,                            !- Surface Type
  ,                                       !- Construction Name
  {25cc532e-6b3f-43e0-a773-3646ad1e2668}, !- Space Name
  Outdoors,                               !- Outside Boundary Condition
  ,                                       !- Outside Boundary Condition Object
  SunExposed,                             !- Sun Exposure
  WindExposed,                            !- Wind Exposure
  ,                                       !- View Factor to Ground
  ,                                       !- Number of Vertices
  5.67074481721334, -10.2065241490521, 2.4384, !- X,Y,Z Vertex 1 {m}
  5.67074481721334, 0, 2.4384,            !- X,Y,Z Vertex 2 {m}
  0, 0, 2.4384,                           !- X,Y,Z Vertex 3 {m}
  0, -10.2065241490521, 2.4384;           !- X,Y,Z Vertex 4 {m}

OS:AdditionalProperties,
  {82596c2e-4371-460d-809f-f373e2596f06}, !- Handle
  {25cc532e-6b3f-43e0-a773-3646ad1e2668}, !- Object Name
  Index,                                  !- Feature Name 1
  Integer,                                !- Feature Data Type 1
  1;                                      !- Feature Value 1

OS:AdditionalProperties,
  {1ca31c2a-8879-4e45-a181-373d6a9992bf}, !- Handle
  {3bedd0db-6fd0-4f0c-b488-bb3533d86cb0}, !- Object Name
  Index,                                  !- Feature Name 1
  Integer,                                !- Feature Data Type 1
  7;                                      !- Feature Value 1

OS:AdditionalProperties,
  {6e02f284-b972-447e-8771-86f298a81482}, !- Handle
  {a7bc35ff-db7b-4de9-a365-670e6071f74f}, !- Object Name
  Index,                                  !- Feature Name 1
  Integer,                                !- Feature Data Type 1
  6;                                      !- Feature Value 1

OS:AdditionalProperties,
  {43f1669a-53c3-446c-8411-df2d0b9f0f17}, !- Handle
  {3efa0b93-679c-4ce8-a8c1-991eebd7a879}, !- Object Name
  Index,                                  !- Feature Name 1
  Integer,                                !- Feature Data Type 1
  2;                                      !- Feature Value 1

OS:AdditionalProperties,
  {2aeddcf0-3c41-4001-a2e2-27a221621519}, !- Handle
  {f7beda4f-24f4-44ca-8462-516928b7b05b}, !- Object Name
  Index,                                  !- Feature Name 1
  Integer,                                !- Feature Data Type 1
  3;                                      !- Feature Value 1

OS:AdditionalProperties,
  {ea02981e-40c4-4a84-a90c-e2ebde9e20c3}, !- Handle
  {d24047a5-3d3a-411d-9e03-d0cc0d7a901b}, !- Object Name
  Index,                                  !- Feature Name 1
  Integer,                                !- Feature Data Type 1
  5;                                      !- Feature Value 1

OS:AdditionalProperties,
  {18ce467b-48ca-4d57-a3a5-98f4e13df736}, !- Handle
  {4329f9bb-28f4-43b0-847c-6fc76c2965f1}, !- Object Name
  Index,                                  !- Feature Name 1
  Integer,                                !- Feature Data Type 1
  4;                                      !- Feature Value 1

OS:SpaceType,
  {3f91d03a-6735-4b24-b345-886594b45356}, !- Handle
  Space Type 1,                           !- Name
  ,                                       !- Default Construction Set Name
  ,                                       !- Default Schedule Set Name
  ,                                       !- Group Rendering Name
  ,                                       !- Design Specification Outdoor Air Object Name
  ,                                       !- Standards Template
  ,                                       !- Standards Building Type
  conditioned space;                      !- Standards Space Type

OS:SubSurface,
  {d6000307-1fde-47cd-b7e0-4dfe8bc32358}, !- Handle
  Surface 5 - Door,                       !- Name
  Door,                                   !- Sub Surface Type
  ,                                       !- Construction Name
  {d24047a5-3d3a-411d-9e03-d0cc0d7a901b}, !- Surface Name
  ,                                       !- Outside Boundary Condition Object
  ,                                       !- View Factor to Ground
  ,                                       !- Frame and Divider Name
  ,                                       !- Multiplier
  ,                                       !- Number of Vertices
  0.1524, -10.206523656, 2.1336,          !- X,Y,Z Vertex 1 {m}
  0.1524, -10.206523656, 0,               !- X,Y,Z Vertex 2 {m}
  1.02325714285714, -10.206523656, 0,     !- X,Y,Z Vertex 3 {m}
  1.02325714285714, -10.206523656, 2.1336; !- X,Y,Z Vertex 4 {m}

OS:AdditionalProperties,
  {588a90b0-b7c2-49a1-a5f0-ec15aefef3ec}, !- Handle
  {d6000307-1fde-47cd-b7e0-4dfe8bc32358}, !- Object Name
  Index,                                  !- Feature Name 1
  Integer,                                !- Feature Data Type 1
  8;                                      !- Feature Value 1

OS:SubSurface,
  {47d03d18-ebce-4c9d-8143-635b8368e43b}, !- Handle
  Surface 3 - Window 1,                   !- Name
  FixedWindow,                            !- Sub Surface Type
  ,                                       !- Construction Name
  {f7beda4f-24f4-44ca-8462-516928b7b05b}, !- Surface Name
  ,                                       !- Outside Boundary Condition Object
  ,                                       !- View Factor to Ground
  ,                                       !- Frame and Divider Name
  ,                                       !- Multiplier
  ,                                       !- Number of Vertices
  4.59989759460271, 0, 2.1336,            !- X,Y,Z Vertex 1 {m}
  4.59989759460271, 0, 1.08196936993059,  !- X,Y,Z Vertex 2 {m}
  3.810977392, 0, 1.08196936993059,       !- X,Y,Z Vertex 3 {m}
  3.810977392, 0, 2.1336;                 !- X,Y,Z Vertex 4 {m}

OS:AdditionalProperties,
  {eff15f40-6e7f-42b1-a310-ac0a85db1540}, !- Handle
  {47d03d18-ebce-4c9d-8143-635b8368e43b}, !- Object Name
  Index,                                  !- Feature Name 1
  Integer,                                !- Feature Data Type 1
  9;                                      !- Feature Value 1

OS:SubSurface,
  {90acb1e2-08f8-4bf8-9a0e-1cf67a3f13a7}, !- Handle
  Surface 3 - Window 2,                   !- Name
  FixedWindow,                            !- Sub Surface Type
  ,                                       !- Construction Name
  {f7beda4f-24f4-44ca-8462-516928b7b05b}, !- Surface Name
  ,                                       !- Outside Boundary Condition Object
  ,                                       !- View Factor to Ground
  ,                                       !- Frame and Divider Name
  ,                                       !- Multiplier
  ,                                       !- Number of Vertices
  3.750017392, 0, 2.1336,                 !- X,Y,Z Vertex 1 {m}
  3.750017392, 0, 1.08196936993059,       !- X,Y,Z Vertex 2 {m}
  2.96109718939729, 0, 1.08196936993059,  !- X,Y,Z Vertex 3 {m}
  2.96109718939729, 0, 2.1336;            !- X,Y,Z Vertex 4 {m}

OS:AdditionalProperties,
  {ce9d79e1-8bab-4cb5-b0ba-b9b356ad3661}, !- Handle
  {90acb1e2-08f8-4bf8-9a0e-1cf67a3f13a7}, !- Object Name
  Index,                                  !- Feature Name 1
  Integer,                                !- Feature Data Type 1
  10;                                     !- Feature Value 1

OS:SubSurface,
  {25fa630e-53af-4068-aa3f-e656cfd02ca8}, !- Handle
  Surface 3 - Window 3,                   !- Name
  FixedWindow,                            !- Sub Surface Type
  ,                                       !- Construction Name
  {f7beda4f-24f4-44ca-8462-516928b7b05b}, !- Surface Name
  ,                                       !- Outside Boundary Condition Object
  ,                                       !- View Factor to Ground
  ,                                       !- Frame and Divider Name
  ,                                       !- Multiplier
  ,                                       !- Number of Vertices
  2.28470879730136, 0, 2.1336,            !- X,Y,Z Vertex 1 {m}
  2.28470879730136, 0, 1.08196936993059,  !- X,Y,Z Vertex 2 {m}
  1.49578859469864, 0, 1.08196936993059,  !- X,Y,Z Vertex 3 {m}
  1.49578859469864, 0, 2.1336;            !- X,Y,Z Vertex 4 {m}

OS:AdditionalProperties,
  {02cda25e-bfc6-42d1-92bb-26b255d95275}, !- Handle
  {25fa630e-53af-4068-aa3f-e656cfd02ca8}, !- Object Name
  Index,                                  !- Feature Name 1
  Integer,                                !- Feature Data Type 1
  11;                                     !- Feature Value 1

OS:SubSurface,
  {526beee0-9143-4cb4-9f71-c63aba953046}, !- Handle
  Surface 4 - Window 1,                   !- Name
  FixedWindow,                            !- Sub Surface Type
  ,                                       !- Construction Name
  {4329f9bb-28f4-43b0-847c-6fc76c2965f1}, !- Surface Name
  ,                                       !- Outside Boundary Condition Object
  ,                                       !- View Factor to Ground
  ,                                       !- Frame and Divider Name
  ,                                       !- Multiplier
  ,                                       !- Number of Vertices
  5.670746088, -8.50520987358584, 2.1336, !- X,Y,Z Vertex 1 {m}
  5.670746088, -8.50520987358584, 1.04075710359608, !- X,Y,Z Vertex 2 {m}
  5.670746088, -7.685372742, 1.04075710359608, !- X,Y,Z Vertex 3 {m}
  5.670746088, -7.685372742, 2.1336;      !- X,Y,Z Vertex 4 {m}

OS:AdditionalProperties,
  {6686207c-65a5-4f99-8abe-8f74a1576619}, !- Handle
  {526beee0-9143-4cb4-9f71-c63aba953046}, !- Object Name
  Index,                                  !- Feature Name 1
  Integer,                                !- Feature Data Type 1
  12;                                     !- Feature Value 1

OS:SubSurface,
  {edd1ec00-89aa-480f-8747-c15765218dfb}, !- Handle
  Surface 4 - Window 2,                   !- Name
  FixedWindow,                            !- Sub Surface Type
  ,                                       !- Construction Name
  {4329f9bb-28f4-43b0-847c-6fc76c2965f1}, !- Surface Name
  ,                                       !- Outside Boundary Condition Object
  ,                                       !- View Factor to Ground
  ,                                       !- Frame and Divider Name
  ,                                       !- Multiplier
  ,                                       !- Number of Vertices
  5.670746088, -7.624412742, 2.1336,      !- X,Y,Z Vertex 1 {m}
  5.670746088, -7.624412742, 1.04075710359608, !- X,Y,Z Vertex 2 {m}
  5.670746088, -6.80457561041416, 1.04075710359608, !- X,Y,Z Vertex 3 {m}
  5.670746088, -6.80457561041416, 2.1336; !- X,Y,Z Vertex 4 {m}

OS:AdditionalProperties,
  {548abdd8-1e49-45a1-8989-349cd998a214}, !- Handle
  {edd1ec00-89aa-480f-8747-c15765218dfb}, !- Object Name
  Index,                                  !- Feature Name 1
  Integer,                                !- Feature Data Type 1
  13;                                     !- Feature Value 1

OS:SubSurface,
  {99914584-eb92-4055-a640-9c4c1bef07a6}, !- Handle
  Surface 4 - Window 3,                   !- Name
  FixedWindow,                            !- Sub Surface Type
  ,                                       !- Construction Name
  {4329f9bb-28f4-43b0-847c-6fc76c2965f1}, !- Surface Name
  ,                                       !- Outside Boundary Condition Object
  ,                                       !- View Factor to Ground
  ,                                       !- Frame and Divider Name
  ,                                       !- Multiplier
  ,                                       !- Number of Vertices
  5.670746088, -5.95357895958584, 2.1336, !- X,Y,Z Vertex 1 {m}
  5.670746088, -5.95357895958584, 1.04075710359608, !- X,Y,Z Vertex 2 {m}
  5.670746088, -5.133741828, 1.04075710359608, !- X,Y,Z Vertex 3 {m}
  5.670746088, -5.133741828, 2.1336;      !- X,Y,Z Vertex 4 {m}

OS:AdditionalProperties,
  {540144f8-1e5a-4cbd-a31d-d0ac78763f05}, !- Handle
  {99914584-eb92-4055-a640-9c4c1bef07a6}, !- Object Name
  Index,                                  !- Feature Name 1
  Integer,                                !- Feature Data Type 1
  14;                                     !- Feature Value 1

OS:SubSurface,
  {2a441662-d51e-43c4-b359-3a55cb2595a9}, !- Handle
  Surface 4 - Window 4,                   !- Name
  FixedWindow,                            !- Sub Surface Type
  ,                                       !- Construction Name
  {4329f9bb-28f4-43b0-847c-6fc76c2965f1}, !- Surface Name
  ,                                       !- Outside Boundary Condition Object
  ,                                       !- View Factor to Ground
  ,                                       !- Frame and Divider Name
  ,                                       !- Multiplier
  ,                                       !- Number of Vertices
  5.670746088, -5.072781828, 2.1336,      !- X,Y,Z Vertex 1 {m}
  5.670746088, -5.072781828, 1.04075710359608, !- X,Y,Z Vertex 2 {m}
  5.670746088, -4.25294469641416, 1.04075710359608, !- X,Y,Z Vertex 3 {m}
  5.670746088, -4.25294469641416, 2.1336; !- X,Y,Z Vertex 4 {m}

OS:AdditionalProperties,
  {10ffa49f-40ea-4893-9e17-b6e10aaf9a68}, !- Handle
  {2a441662-d51e-43c4-b359-3a55cb2595a9}, !- Object Name
  Index,                                  !- Feature Name 1
  Integer,                                !- Feature Data Type 1
  15;                                     !- Feature Value 1

OS:SubSurface,
  {3511d4b4-0fdc-40d5-938e-35124805d684}, !- Handle
  Surface 4 - Window 5,                   !- Name
  FixedWindow,                            !- Sub Surface Type
  ,                                       !- Construction Name
  {4329f9bb-28f4-43b0-847c-6fc76c2965f1}, !- Surface Name
  ,                                       !- Outside Boundary Condition Object
  ,                                       !- View Factor to Ground
  ,                                       !- Frame and Divider Name
  ,                                       !- Multiplier
  ,                                       !- Number of Vertices
  5.670746088, -2.96154947979292, 2.1336, !- X,Y,Z Vertex 1 {m}
  5.670746088, -2.96154947979292, 1.04075710359608, !- X,Y,Z Vertex 2 {m}
  5.670746088, -2.14171234820708, 1.04075710359608, !- X,Y,Z Vertex 3 {m}
  5.670746088, -2.14171234820708, 2.1336; !- X,Y,Z Vertex 4 {m}

OS:AdditionalProperties,
  {1818fbf8-8eba-46ca-bbba-9be57f4c8541}, !- Handle
  {3511d4b4-0fdc-40d5-938e-35124805d684}, !- Object Name
  Index,                                  !- Feature Name 1
  Integer,                                !- Feature Data Type 1
  16;                                     !- Feature Value 1

