
Version,
  23.2;                                   !- Version Identifier

Timestep,
  1;                                      !- Number of Timesteps per Hour

LifeCycleCost:Parameters,
  Life Cycle Cost Parameters,             !- Name
  EndOfYear,                              !- Discounting Convention
  ConstantDollar,                         !- Inflation Approach
  0.03,                                   !- Real Discount Rate
  ,                                       !- Nominal Discount Rate
  ,                                       !- Inflation
  ,                                       !- Base Date Month
  2011,                                   !- Base Date Year
  ,                                       !- Service Date Month
  2011,                                   !- Service Date Year
  25,                                     !- Length of Study Period in Years
  ,                                       !- Tax rate
  None;                                   !- Depreciation Method

LifeCycleCost:UsePriceEscalation,
  U.S. Avg  Commercial-Electricity,       !- Name
  Electricity,                            !- Resource
  2011,                                   !- Escalation Start Year
  January,                                !- Escalation Start Month
  0.9838,                                 !- Year Escalation 1
  0.9730,                                 !- Year Escalation 2
  0.9632,                                 !- Year Escalation 3
  0.9611,                                 !- Year Escalation 4
  0.9571,                                 !- Year Escalation 5
  0.9553,                                 !- Year Escalation 6
  0.9539,                                 !- Year Escalation 7
  0.9521,                                 !- Year Escalation 8
  0.9546,                                 !- Year Escalation 9
  0.9550,                                 !- Year Escalation 10
  0.9553,                                 !- Year Escalation 11
  0.9564,                                 !- Year Escalation 12
  0.9575,                                 !- Year Escalation 13
  0.9596,                                 !- Year Escalation 14
  0.9618,                                 !- Year Escalation 15
  0.9614,                                 !- Year Escalation 16
  0.9618,                                 !- Year Escalation 17
  0.9618,                                 !- Year Escalation 18
  0.9593,                                 !- Year Escalation 19
  0.9589,                                 !- Year Escalation 20
  0.9607,                                 !- Year Escalation 21
  0.9625,                                 !- Year Escalation 22
  0.9650,                                 !- Year Escalation 23
  0.9708,                                 !- Year Escalation 24
  0.9751,                                 !- Year Escalation 25
  0.9762,                                 !- Year Escalation 26
  0.9766,                                 !- Year Escalation 27
  0.9766,                                 !- Year Escalation 28
  0.9769,                                 !- Year Escalation 29
  0.9773;                                 !- Year Escalation 30

LifeCycleCost:UsePriceEscalation,
  U.S. Avg  Commercial-Distillate Oil,    !- Name
  FuelOilNo1,                             !- Resource
  2011,                                   !- Escalation Start Year
  January,                                !- Escalation Start Month
  0.9714,                                 !- Year Escalation 1
  0.9730,                                 !- Year Escalation 2
  0.9942,                                 !- Year Escalation 3
  1.0164,                                 !- Year Escalation 4
  1.0541,                                 !- Year Escalation 5
  1.0928,                                 !- Year Escalation 6
  1.1267,                                 !- Year Escalation 7
  1.1580,                                 !- Year Escalation 8
  1.1792,                                 !- Year Escalation 9
  1.1967,                                 !- Year Escalation 10
  1.2200,                                 !- Year Escalation 11
  1.2333,                                 !- Year Escalation 12
  1.2566,                                 !- Year Escalation 13
  1.2709,                                 !- Year Escalation 14
  1.2826,                                 !- Year Escalation 15
  1.2985,                                 !- Year Escalation 16
  1.3102,                                 !- Year Escalation 17
  1.3250,                                 !- Year Escalation 18
  1.3261,                                 !- Year Escalation 19
  1.3282,                                 !- Year Escalation 20
  1.3324,                                 !- Year Escalation 21
  1.3356,                                 !- Year Escalation 22
  1.3431,                                 !- Year Escalation 23
  1.3510,                                 !- Year Escalation 24
  1.3568,                                 !- Year Escalation 25
  1.3606,                                 !- Year Escalation 26
  1.3637,                                 !- Year Escalation 27
  1.3674,                                 !- Year Escalation 28
  1.3706,                                 !- Year Escalation 29
  1.3743;                                 !- Year Escalation 30

LifeCycleCost:UsePriceEscalation,
  U.S. Avg  Commercial-Residual Oil,      !- Name
  FuelOilNo2,                             !- Resource
  2011,                                   !- Escalation Start Year
  January,                                !- Escalation Start Month
  0.8469,                                 !- Year Escalation 1
  0.8257,                                 !- Year Escalation 2
  0.8681,                                 !- Year Escalation 3
  0.8988,                                 !- Year Escalation 4
  0.9289,                                 !- Year Escalation 5
  0.9604,                                 !- Year Escalation 6
  0.9897,                                 !- Year Escalation 7
  1.0075,                                 !- Year Escalation 8
  1.0314,                                 !- Year Escalation 9
  1.0554,                                 !- Year Escalation 10
  1.0861,                                 !- Year Escalation 11
  1.1278,                                 !- Year Escalation 12
  1.1497,                                 !- Year Escalation 13
  1.1620,                                 !- Year Escalation 14
  1.1743,                                 !- Year Escalation 15
  1.1852,                                 !- Year Escalation 16
  1.1948,                                 !- Year Escalation 17
  1.2037,                                 !- Year Escalation 18
  1.2071,                                 !- Year Escalation 19
  1.2119,                                 !- Year Escalation 20
  1.2139,                                 !- Year Escalation 21
  1.2194,                                 !- Year Escalation 22
  1.2276,                                 !- Year Escalation 23
  1.2365,                                 !- Year Escalation 24
  1.2420,                                 !- Year Escalation 25
  1.2461,                                 !- Year Escalation 26
  1.2509,                                 !- Year Escalation 27
  1.2550,                                 !- Year Escalation 28
  1.2591,                                 !- Year Escalation 29
  1.2638;                                 !- Year Escalation 30

LifeCycleCost:UsePriceEscalation,
  U.S. Avg  Commercial-Natural gas,       !- Name
  NaturalGas,                             !- Resource
  2011,                                   !- Escalation Start Year
  January,                                !- Escalation Start Month
  0.9823,                                 !- Year Escalation 1
  0.9557,                                 !- Year Escalation 2
  0.9279,                                 !- Year Escalation 3
  0.9257,                                 !- Year Escalation 4
  0.9346,                                 !- Year Escalation 5
  0.9412,                                 !- Year Escalation 6
  0.9512,                                 !- Year Escalation 7
  0.9645,                                 !- Year Escalation 8
  0.9856,                                 !- Year Escalation 9
  1.0067,                                 !- Year Escalation 10
  1.0222,                                 !- Year Escalation 11
  1.0410,                                 !- Year Escalation 12
  1.0610,                                 !- Year Escalation 13
  1.0787,                                 !- Year Escalation 14
  1.0942,                                 !- Year Escalation 15
  1.1098,                                 !- Year Escalation 16
  1.1220,                                 !- Year Escalation 17
  1.1308,                                 !- Year Escalation 18
  1.1386,                                 !- Year Escalation 19
  1.1486,                                 !- Year Escalation 20
  1.1619,                                 !- Year Escalation 21
  1.1763,                                 !- Year Escalation 22
  1.1918,                                 !- Year Escalation 23
  1.2118,                                 !- Year Escalation 24
  1.2284,                                 !- Year Escalation 25
  1.2439,                                 !- Year Escalation 26
  1.2605,                                 !- Year Escalation 27
  1.2772,                                 !- Year Escalation 28
  1.2938,                                 !- Year Escalation 29
  1.3115;                                 !- Year Escalation 30

LifeCycleCost:UsePriceEscalation,
  U.S. Avg  Commercial-Coal,              !- Name
  Coal,                                   !- Resource
  2011,                                   !- Escalation Start Year
  January,                                !- Escalation Start Month
  0.9970,                                 !- Year Escalation 1
  1.0089,                                 !- Year Escalation 2
  1.0089,                                 !- Year Escalation 3
  0.9941,                                 !- Year Escalation 4
  0.9941,                                 !- Year Escalation 5
  1.0000,                                 !- Year Escalation 6
  1.0030,                                 !- Year Escalation 7
  1.0059,                                 !- Year Escalation 8
  1.0089,                                 !- Year Escalation 9
  1.0119,                                 !- Year Escalation 10
  1.0148,                                 !- Year Escalation 11
  1.0178,                                 !- Year Escalation 12
  1.0208,                                 !- Year Escalation 13
  1.0267,                                 !- Year Escalation 14
  1.0297,                                 !- Year Escalation 15
  1.0356,                                 !- Year Escalation 16
  1.0415,                                 !- Year Escalation 17
  1.0534,                                 !- Year Escalation 18
  1.0564,                                 !- Year Escalation 19
  1.0593,                                 !- Year Escalation 20
  1.0653,                                 !- Year Escalation 21
  1.0712,                                 !- Year Escalation 22
  1.0742,                                 !- Year Escalation 23
  1.0801,                                 !- Year Escalation 24
  1.0831,                                 !- Year Escalation 25
  1.0831,                                 !- Year Escalation 26
  1.0861,                                 !- Year Escalation 27
  1.0890,                                 !- Year Escalation 28
  1.0920,                                 !- Year Escalation 29
  1.0950;                                 !- Year Escalation 30

Building,
  Building 1,                             !- Name
  ,                                       !- North Axis {deg}
  Suburbs,                                !- Terrain
  ,                                       !- Loads Convergence Tolerance Value {W}
  ,                                       !- Temperature Convergence Tolerance Value {deltaC}
  ,                                       !- Solar Distribution
  ,                                       !- Maximum Number of Warmup Days
  ;                                       !- Minimum Number of Warmup Days

Shading:Building:Detailed,
  Neighbor azimuth 270 distance 27.0,     !- Name
  ,                                       !- Transmittance Schedule Name
  ,                                       !- Number of Vertices
  -15.3679831772707, -7.13838398330041, 0, !- X,Y,Z Vertex 1 {m}
  -15.3679831772707, -7.13838398330041, 2.4384, !- X,Y,Z Vertex 2 {m}
  -15.3679837490177, 7.13838275240566, 2.4384, !- X,Y,Z Vertex 3 {m}
  -15.3679837490177, 7.13838275240566, 0; !- X,Y,Z Vertex 4 {m}

Shading:Building:Detailed,
  Neighbor azimuth 90 distance 27.0,      !- Name
  ,                                       !- Transmittance Schedule Name
  ,                                       !- Number of Vertices
  15.367983367853, 7.13838357300216, 0,   !- X,Y,Z Vertex 1 {m}
  15.367983367853, 7.13838357300216, 2.4384, !- X,Y,Z Vertex 2 {m}
  15.3679835584354, -7.13838316270391, 2.4384, !- X,Y,Z Vertex 3 {m}
  15.3679835584354, -7.13838316270391, 0; !- X,Y,Z Vertex 4 {m}

Zone,
  conditioned space,                      !- Name
  ,                                       !- Direction of Relative North {deg}
  0,                                      !- X Origin {m}
  0,                                      !- Y Origin {m}
  0,                                      !- Z Origin {m}
  ,                                       !- Type
  1,                                      !- Multiplier
  ,                                       !- Ceiling Height {m}
  141.131163414528,                       !- Volume {m3}
  ,                                       !- Floor Area {m2}
  ,                                       !- Zone Inside Convection Algorithm
  ,                                       !- Zone Outside Convection Algorithm
  Yes;                                    !- Part of Total Floor Area

Space,
  conditioned space 1,                    !- Name
  conditioned space,                      !- Zone Name
  ,                                       !- Ceiling Height {m}
  141.131163414528,                       !- Volume {m3}
  ;                                       !- Floor Area {m2}

Shading:Zone:Detailed,
  Window1 overhangs,                      !- Name
  surface Window1,                        !- Base Surface Name
  ,                                       !- Transmittance Schedule Name
  ,                                       !- Number of Vertices
  4.21652692799885, 7.13838354253586, 1.58496, !- X,Y,Z Vertex 1 {m}
  7.67813336785304, 7.13838354253586, 1.58496, !- X,Y,Z Vertex 2 {m}
  7.67813336785304, 7.74798354253586, 1.58496, !- X,Y,Z Vertex 3 {m}
  4.21652692799885, 7.74798354253586, 1.58496; !- X,Y,Z Vertex 4 {m}

Shading:Zone:Detailed,
  Window2 overhangs,                      !- Name
  surface Window2,                        !- Base Surface Name
  ,                                       !- Transmittance Schedule Name
  ,                                       !- Number of Vertices
  7.13838356546275, -2.55049733685579, 1.64592, !- X,Y,Z Vertex 1 {m}
  7.13838363391221, -7.67813327256187, 1.64592, !- X,Y,Z Vertex 2 {m}
  7.7479836339122, -7.67813326442424, 1.64592, !- X,Y,Z Vertex 3 {m}
  7.74798356546276, -2.55049732871816, 1.64592; !- X,Y,Z Vertex 4 {m}

BuildingSurface:Detailed,
  Floor1,                                 !- Name
  Floor,                                  !- Surface Type
  Floor1 construction,                    !- Construction Name
  conditioned space,                      !- Zone Name
  conditioned space 1,                    !- Space Name
  Adiabatic,                              !- Outside Boundary Condition
  ,                                       !- Outside Boundary Condition Object
  NoSun,                                  !- Sun Exposure
  NoWind,                                 !- Wind Exposure
  ,                                       !- View Factor to Ground
  ,                                       !- Number of Vertices
  -3.80389911538148, -3.80389911538148, 0, !- X,Y,Z Vertex 1 {m}
  -3.80389911538148, 3.80389911538148, 0, !- X,Y,Z Vertex 2 {m}
  3.80389911538148, 3.80389911538148, 0,  !- X,Y,Z Vertex 3 {m}
  3.80389911538148, -3.80389911538148, 0; !- X,Y,Z Vertex 4 {m}

BuildingSurface:Detailed,
  Roof1,                                  !- Name
  Roof,                                   !- Surface Type
  Roof1 construction,                     !- Construction Name
  conditioned space,                      !- Zone Name
  conditioned space 1,                    !- Space Name
  Outdoors,                               !- Outside Boundary Condition
  ,                                       !- Outside Boundary Condition Object
  SunExposed,                             !- Sun Exposure
  WindExposed,                            !- Wind Exposure
  ,                                       !- View Factor to Ground
  ,                                       !- Number of Vertices
  -3.80389901382403, 3.80389921693892, 2.4384, !- X,Y,Z Vertex 1 {m}
  -3.80389921693892, -3.80389901382403, 2.4384, !- X,Y,Z Vertex 2 {m}
  3.80389901382403, -3.80389921693892, 2.4384, !- X,Y,Z Vertex 3 {m}
  3.80389921693892, 3.80389901382403, 2.4384; !- X,Y,Z Vertex 4 {m}

BuildingSurface:Detailed,
  surface Window1,                        !- Name
  Wall,                                   !- Surface Type
  AdiabaticWallConstruction,              !- Construction Name
  conditioned space,                      !- Zone Name
  conditioned space 1,                    !- Space Name
  Outdoors,                               !- Outside Boundary Condition
  ,                                       !- Outside Boundary Condition Object
  SunExposed,                             !- Sun Exposure
  WindExposed,                            !- Wind Exposure
  ,                                       !- View Factor to Ground
  ,                                       !- Number of Vertices
  4.75554780455727, 7.13838354253586, -0.000729123441581048, !- X,Y,Z Vertex 1 {m}
  4.75554780455727, 7.13838354253586, 1.04593912344158, !- X,Y,Z Vertex 2 {m}
  7.13911249129463, 7.13838354253586, 1.04593912344158, !- X,Y,Z Vertex 3 {m}
  7.13911249129463, 7.13838354253586, -0.000729123441581048; !- X,Y,Z Vertex 4 {m}

FenestrationSurface:Detailed,
  Window1,                                !- Name
  Window,                                 !- Surface Type
  WindowConstruction,                     !- Construction Name
  surface Window1,                        !- Building Surface Name
  ,                                       !- Outside Boundary Condition Object
  ,                                       !- View Factor to Ground
  ,                                       !- Frame and Divider Name
  ,                                       !- Multiplier
  ,                                       !- Number of Vertices
  4.75627692799885, 7.13838354253586, 0,  !- X,Y,Z Vertex 1 {m}
  4.75627692799885, 7.13838354253586, 1.04521, !- X,Y,Z Vertex 2 {m}
  7.13838336785305, 7.13838354253586, 1.04521, !- X,Y,Z Vertex 3 {m}
  7.13838336785305, 7.13838354253586, 0;  !- X,Y,Z Vertex 4 {m}

SurfaceProperty:IncidentSolarMultiplier,
  Window1,                                !- Surface Name
  1,                                      !- Incident Solar Multiplier {dimensionless}
  trans schedule winter=0.85 summer=0.7;  !- Incident Solar Multiplier Schedule Name

ScheduleTypeLimits,
  Fractional,                             !- Name
  0,                                      !- Lower Limit Value {BasedOnField A3}
  1,                                      !- Upper Limit Value {BasedOnField A3}
  Continuous;                             !- Numeric Type

Schedule:Day:Interval,
  trans schedule winter=0.85 summer=0.7 allday1, !- Name
  Fractional,                             !- Schedule Type Limits Name
  No,                                     !- Interpolate to Timestep
  24:00,                                  !- Time 1 {hh:mm}
  0.85;                                   !- Value Until Time 1

Schedule:Day:Interval,
  trans schedule winter=0.85 summer=0.7 allday152, !- Name
  Fractional,                             !- Schedule Type Limits Name
  No,                                     !- Interpolate to Timestep
  24:00,                                  !- Time 1 {hh:mm}
  0.7;                                    !- Value Until Time 1

Schedule:Week:Daily,
  trans schedule winter=0.85 summer=0.7 Week Rule - Jan1-May26, !- Name
  trans schedule winter=0.85 summer=0.7 allday1, !- Sunday Schedule:Day Name
  trans schedule winter=0.85 summer=0.7 allday1, !- Monday Schedule:Day Name
  trans schedule winter=0.85 summer=0.7 allday1, !- Tuesday Schedule:Day Name
  trans schedule winter=0.85 summer=0.7 allday1, !- Wednesday Schedule:Day Name
  trans schedule winter=0.85 summer=0.7 allday1, !- Thursday Schedule:Day Name
  trans schedule winter=0.85 summer=0.7 allday1, !- Friday Schedule:Day Name
  trans schedule winter=0.85 summer=0.7 allday1, !- Saturday Schedule:Day Name
  trans schedule winter=0.85 summer=0.7 default day, !- Holiday Schedule:Day Name
  trans schedule winter=0.85 summer=0.7 default day, !- SummerDesignDay Schedule:Day Name
  trans schedule winter=0.85 summer=0.7 default day, !- WinterDesignDay Schedule:Day Name
  trans schedule winter=0.85 summer=0.7 default day, !- CustomDay1 Schedule:Day Name
  trans schedule winter=0.85 summer=0.7 default day; !- CustomDay2 Schedule:Day Name

Schedule:Week:Daily,
  trans schedule winter=0.85 summer=0.7 Week Rule - May27-Jun2, !- Name
  trans schedule winter=0.85 summer=0.7 allday1, !- Sunday Schedule:Day Name
  trans schedule winter=0.85 summer=0.7 allday1, !- Monday Schedule:Day Name
  trans schedule winter=0.85 summer=0.7 allday1, !- Tuesday Schedule:Day Name
  trans schedule winter=0.85 summer=0.7 allday1, !- Wednesday Schedule:Day Name
  trans schedule winter=0.85 summer=0.7 allday1, !- Thursday Schedule:Day Name
  trans schedule winter=0.85 summer=0.7 allday152, !- Friday Schedule:Day Name
  trans schedule winter=0.85 summer=0.7 allday152, !- Saturday Schedule:Day Name
  trans schedule winter=0.85 summer=0.7 default day, !- Holiday Schedule:Day Name
  trans schedule winter=0.85 summer=0.7 default day, !- SummerDesignDay Schedule:Day Name
  trans schedule winter=0.85 summer=0.7 default day, !- WinterDesignDay Schedule:Day Name
  trans schedule winter=0.85 summer=0.7 default day, !- CustomDay1 Schedule:Day Name
  trans schedule winter=0.85 summer=0.7 default day; !- CustomDay2 Schedule:Day Name

Schedule:Day:Interval,
  trans schedule winter=0.85 summer=0.7 allday274, !- Name
  Fractional,                             !- Schedule Type Limits Name
  No,                                     !- Interpolate to Timestep
  24:00,                                  !- Time 1 {hh:mm}
  0.85;                                   !- Value Until Time 1

Schedule:Week:Daily,
  trans schedule winter=0.85 summer=0.7 Week Rule - Jun3-Sep29, !- Name
  trans schedule winter=0.85 summer=0.7 allday152, !- Sunday Schedule:Day Name
  trans schedule winter=0.85 summer=0.7 allday152, !- Monday Schedule:Day Name
  trans schedule winter=0.85 summer=0.7 allday152, !- Tuesday Schedule:Day Name
  trans schedule winter=0.85 summer=0.7 allday152, !- Wednesday Schedule:Day Name
  trans schedule winter=0.85 summer=0.7 allday152, !- Thursday Schedule:Day Name
  trans schedule winter=0.85 summer=0.7 allday152, !- Friday Schedule:Day Name
  trans schedule winter=0.85 summer=0.7 allday152, !- Saturday Schedule:Day Name
  trans schedule winter=0.85 summer=0.7 default day, !- Holiday Schedule:Day Name
  trans schedule winter=0.85 summer=0.7 default day, !- SummerDesignDay Schedule:Day Name
  trans schedule winter=0.85 summer=0.7 default day, !- WinterDesignDay Schedule:Day Name
  trans schedule winter=0.85 summer=0.7 default day, !- CustomDay1 Schedule:Day Name
  trans schedule winter=0.85 summer=0.7 default day; !- CustomDay2 Schedule:Day Name

Schedule:Week:Daily,
  trans schedule winter=0.85 summer=0.7 Week Rule - Sep30-Oct6, !- Name
  trans schedule winter=0.85 summer=0.7 allday152, !- Sunday Schedule:Day Name
  trans schedule winter=0.85 summer=0.7 allday274, !- Monday Schedule:Day Name
  trans schedule winter=0.85 summer=0.7 allday274, !- Tuesday Schedule:Day Name
  trans schedule winter=0.85 summer=0.7 allday274, !- Wednesday Schedule:Day Name
  trans schedule winter=0.85 summer=0.7 allday274, !- Thursday Schedule:Day Name
  trans schedule winter=0.85 summer=0.7 allday274, !- Friday Schedule:Day Name
  trans schedule winter=0.85 summer=0.7 allday274, !- Saturday Schedule:Day Name
  trans schedule winter=0.85 summer=0.7 default day, !- Holiday Schedule:Day Name
  trans schedule winter=0.85 summer=0.7 default day, !- SummerDesignDay Schedule:Day Name
  trans schedule winter=0.85 summer=0.7 default day, !- WinterDesignDay Schedule:Day Name
  trans schedule winter=0.85 summer=0.7 default day, !- CustomDay1 Schedule:Day Name
  trans schedule winter=0.85 summer=0.7 default day; !- CustomDay2 Schedule:Day Name

Schedule:Week:Daily,
  trans schedule winter=0.85 summer=0.7 Week Rule - Oct7-Dec31, !- Name
  trans schedule winter=0.85 summer=0.7 allday274, !- Sunday Schedule:Day Name
  trans schedule winter=0.85 summer=0.7 allday274, !- Monday Schedule:Day Name
  trans schedule winter=0.85 summer=0.7 allday274, !- Tuesday Schedule:Day Name
  trans schedule winter=0.85 summer=0.7 allday274, !- Wednesday Schedule:Day Name
  trans schedule winter=0.85 summer=0.7 allday274, !- Thursday Schedule:Day Name
  trans schedule winter=0.85 summer=0.7 allday274, !- Friday Schedule:Day Name
  trans schedule winter=0.85 summer=0.7 allday274, !- Saturday Schedule:Day Name
  trans schedule winter=0.85 summer=0.7 default day, !- Holiday Schedule:Day Name
  trans schedule winter=0.85 summer=0.7 default day, !- SummerDesignDay Schedule:Day Name
  trans schedule winter=0.85 summer=0.7 default day, !- WinterDesignDay Schedule:Day Name
  trans schedule winter=0.85 summer=0.7 default day, !- CustomDay1 Schedule:Day Name
  trans schedule winter=0.85 summer=0.7 default day; !- CustomDay2 Schedule:Day Name

Schedule:Year,
  trans schedule winter=0.85 summer=0.7,  !- Name
  Fractional,                             !- Schedule Type Limits Name
  trans schedule winter=0.85 summer=0.7 Week Rule - Jan1-May26, !- Schedule:Week Name 1
  1,                                      !- Start Month 1
  1,                                      !- Start Day 1
  5,                                      !- End Month 1
  26,                                     !- End Day 1
  trans schedule winter=0.85 summer=0.7 Week Rule - May27-Jun2, !- Schedule:Week Name 2
  5,                                      !- Start Month 2
  27,                                     !- Start Day 2
  6,                                      !- End Month 2
  2,                                      !- End Day 2
  trans schedule winter=0.85 summer=0.7 Week Rule - Jun3-Sep29, !- Schedule:Week Name 3
  6,                                      !- Start Month 3
  3,                                      !- Start Day 3
  9,                                      !- End Month 3
  29,                                     !- End Day 3
  trans schedule winter=0.85 summer=0.7 Week Rule - Sep30-Oct6, !- Schedule:Week Name 4
  9,                                      !- Start Month 4
  30,                                     !- Start Day 4
  10,                                     !- End Month 4
  6,                                      !- End Day 4
  trans schedule winter=0.85 summer=0.7 Week Rule - Oct7-Dec31, !- Schedule:Week Name 5
  10,                                     !- Start Month 5
  7,                                      !- Start Day 5
  12,                                     !- End Month 5
  31;                                     !- End Day 5

Schedule:Day:Interval,
  trans schedule winter=0.85 summer=0.7 default day, !- Name
  Fractional,                             !- Schedule Type Limits Name
  No,                                     !- Interpolate to Timestep
  24:00,                                  !- Time 1 {hh:mm}
  0;                                      !- Value Until Time 1

BuildingSurface:Detailed,
  surface Window2,                        !- Name
  Wall,                                   !- Surface Type
  AdiabaticWallConstruction,              !- Construction Name
  conditioned space,                      !- Zone Name
  conditioned space 1,                    !- Space Name
  Outdoors,                               !- Outside Boundary Condition
  ,                                       !- Outside Boundary Condition Object
  SunExposed,                             !- Sun Exposure
  WindExposed,                            !- Wind Exposure
  ,                                       !- View Factor to Ground
  ,                                       !- Number of Vertices
  7.13838357266147, -3.08976239674991, -0.000484940105877685, !- X,Y,Z Vertex 1 {m}
  7.13838357266147, -3.08976239674991, 1.10665494010588, !- X,Y,Z Vertex 2 {m}
  7.13838362671349, -7.13886821266775, 1.10665494010588, !- X,Y,Z Vertex 3 {m}
  7.13838362671349, -7.13886821266775, -0.000484940105877685; !- X,Y,Z Vertex 4 {m}

FenestrationSurface:Detailed,
  Window2,                                !- Name
  Window,                                 !- Surface Type
  WindowConstruction 1,                   !- Construction Name
  surface Window2,                        !- Building Surface Name
  ,                                       !- Outside Boundary Condition Object