
OS:Version,
  {c153c837-9270-4b56-a580-4d6799b358c2}, !- Handle
  3.7.0;                                  !- Version Identifier

OS:ThermalZone,
  {0f9a728b-a11a-4e6b-90fb-6ccb6378af42}, !- Handle
  conditioned space,                      !- Name
  ,                                       !- Multiplier
  ,                                       !- Ceiling Height {m}
  ,                                       !- Volume {m3}
  ,                                       !- Floor Area {m2}
  ,                                       !- Zone Inside Convection Algorithm
  ,                                       !- Zone Outside Convection Algorithm
  ,                                       !- Zone Conditioning Equipment List Name
  {bf843d2c-4925-437c-8c9c-07b7d57ab9f8}, !- Zone Air Inlet Port List
  {77403dc2-75eb-4ed7-82fb-6dc6bef81166}, !- Zone Air Exhaust Port List
  {aef9493d-eee0-49ba-afe9-1f01e0171faf}, !- Zone Air Node Name
  {578a1eda-2628-4636-b1b9-541b1191f896}, !- Zone Return Air Port List
  ,                                       !- Primary Daylighting Control Name
  ,                                       !- Fraction of Zone Controlled by Primary Daylighting Control
  ,                                       !- Secondary Daylighting Control Name
  ,                                       !- Fraction of Zone Controlled by Secondary Daylighting Control
  ,                                       !- Illuminance Map Name
  ,                                       !- Group Rendering Name
  ,                                       !- Thermostat Name
  No;                                     !- Use Ideal Air Loads

OS:Node,
  {914aff72-1150-4caa-a470-08987af167e7}, !- Handle
  Node 1,                                 !- Name
  {aef9493d-eee0-49ba-afe9-1f01e0171faf}, !- Inlet Port
  ;                                       !- Outlet Port

OS:Connection,
  {aef9493d-eee0-49ba-afe9-1f01e0171faf}, !- Handle
  {0f9a728b-a11a-4e6b-90fb-6ccb6378af42}, !- Source Object
  11,                                     !- Outlet Port
  {914aff72-1150-4caa-a470-08987af167e7}, !- Target Object
  2;                                      !- Inlet Port

OS:PortList,
  {bf843d2c-4925-437c-8c9c-07b7d57ab9f8}, !- Handle
  {0f9a728b-a11a-4e6b-90fb-6ccb6378af42}; !- HVAC Component

OS:PortList,
  {77403dc2-75eb-4ed7-82fb-6dc6bef81166}, !- Handle
  {0f9a728b-a11a-4e6b-90fb-6ccb6378af42}; !- HVAC Component

OS:PortList,
  {578a1eda-2628-4636-b1b9-541b1191f896}, !- Handle
  {0f9a728b-a11a-4e6b-90fb-6ccb6378af42}; !- HVAC Component

OS:Sizing:Zone,
  {eda599a2-2acd-4402-949a-2e28afd336a9}, !- Handle
  {0f9a728b-a11a-4e6b-90fb-6ccb6378af42}, !- Zone or ZoneList Name
  SupplyAirTemperature,                   !- Zone Cooling Design Supply Air Temperature Input Method
  14,                                     !- Zone Cooling Design Supply Air Temperature {C}
  11.11,                                  !- Zone Cooling Design Supply Air Temperature Difference {deltaC}
  SupplyAirTemperature,                   !- Zone Heating Design Supply Air Temperature Input Method
  40,                                     !- Zone Heating Design Supply Air Temperature {C}
  11.11,                                  !- Zone Heating Design Supply Air Temperature Difference {deltaC}
  0.0085,                                 !- Zone Cooling Design Supply Air Humidity Ratio {kg-H2O/kg-air}
  0.008,                                  !- Zone Heating Design Supply Air Humidity Ratio {kg-H2O/kg-air}
  ,                                       !- Zone Heating Sizing Factor
  ,                                       !- Zone Cooling Sizing Factor
  DesignDay,                              !- Cooling Design Air Flow Method
  ,                                       !- Cooling Design Air Flow Rate {m3/s}
  ,                                       !- Cooling Minimum Air Flow per Zone Floor Area {m3/s-m2}
  ,                                       !- Cooling Minimum Air Flow {m3/s}
  ,                                       !- Cooling Minimum Air Flow Fraction
  DesignDay,                              !- Heating Design Air Flow Method
  ,                                       !- Heating Design Air Flow Rate {m3/s}
  ,                                       !- Heating Maximum Air Flow per Zone Floor Area {m3/s-m2}
  ,                                       !- Heating Maximum Air Flow {m3/s}
  ,                                       !- Heating Maximum Air Flow Fraction
  No,                                     !- Account for Dedicated Outdoor Air System
  NeutralSupplyAir,                       !- Dedicated Outdoor Air System Control Strategy
  autosize,                               !- Dedicated Outdoor Air Low Setpoint Temperature for Design {C}
  autosize,                               !- Dedicated Outdoor Air High Setpoint Temperature for Design {C}
  Sensible Load Only No Latent Load,      !- Zone Load Sizing Method
  HumidityRatioDifference,                !- Zone Latent Cooling Design Supply Air Humidity Ratio Input Method
  ,                                       !- Zone Dehumidification Design Supply Air Humidity Ratio {kgWater/kgDryAir}
  0.005,                                  !- Zone Cooling Design Supply Air Humidity Ratio Difference {kgWater/kgDryAir}
  HumidityRatioDifference,                !- Zone Latent Heating Design Supply Air Humidity Ratio Input Method
  ,                                       !- Zone Humidification Design Supply Air Humidity Ratio {kgWater/kgDryAir}
  0.005;                                  !- Zone Humidification Design Supply Air Humidity Ratio Difference {kgWater/kgDryAir}

OS:ZoneHVAC:EquipmentList,
  {86e861a2-70ea-44a9-bc31-7513eadee5aa}, !- Handle
  Zone HVAC Equipment List 1,             !- Name
  {0f9a728b-a11a-4e6b-90fb-6ccb6378af42}; !- Thermal Zone

OS:Space,
  {7030a345-eade-4671-a4d0-2e292553146a}, !- Handle
  conditioned space 1,                    !- Name
  {73546032-1e5e-4834-9299-c37124787e67}, !- Space Type Name
  ,                                       !- Default Construction Set Name
  ,                                       !- Default Schedule Set Name
  ,                                       !- Direction of Relative North {deg}
  ,                                       !- X Origin {m}
  ,                                       !- Y Origin {m}
  ,                                       !- Z Origin {m}
  ,                                       !- Building Story Name
  {0f9a728b-a11a-4e6b-90fb-6ccb6378af42}; !- Thermal Zone Name

OS:Surface,
  {726c1e96-dab5-45a4-9256-876ca45d751a}, !- Handle
  Surface 1,                              !- Name
  Floor,                                  !- Surface Type
  ,                                       !- Construction Name
  {7030a345-eade-4671-a4d0-2e292553146a}, !- Space Name
  Adiabatic,                              !- Outside Boundary Condition
  ,                                       !- Outside Boundary Condition Object
  NoSun,                                  !- Sun Exposure
  NoWind,                                 !- Wind Exposure
  ,                                       !- View Factor to Ground
  ,                                       !- Number of Vertices
  0, -13.7944686069043, 0,                !- X,Y,Z Vertex 1 {m}
  0, 0, 0,                                !- X,Y,Z Vertex 2 {m}
  7.66420675799603, 0, 0,                 !- X,Y,Z Vertex 3 {m}
  7.66420675799603, -13.7944686069043, 0; !- X,Y,Z Vertex 4 {m}

OS:Surface,
  {8539e83d-33cf-4fd3-9f21-d516739a4027}, !- Handle
  Surface 2,                              !- Name
  Wall,                                   !- Surface Type
  ,                                       !- Construction Name
  {7030a345-eade-4671-a4d0-2e292553146a}, !- Space Name
  Adiabatic,                              !- Outside Boundary Condition
  ,                                       !- Outside Boundary Condition Object
  NoSun,                                  !- Sun Exposure
  NoWind,                                 !- Wind Exposure
  ,                                       !- View Factor to Ground
  ,                                       !- Number of Vertices
  0, -13.7944686069043, 2.4384,           !- X,Y,Z Vertex 1 {m}
  0, 0, 2.4384,                           !- X,Y,Z Vertex 2 {m}
  0, 0, 0,                                !- X,Y,Z Vertex 3 {m}
  0, -13.7944686069043, 0;                !- X,Y,Z Vertex 4 {m}

OS:Surface,
  {ee67b186-58a1-4180-83d4-6968c172e4f4}, !- Handle
  Surface 3,                              !- Name
  Wall,                                   !- Surface Type
  ,                                       !- Construction Name
  {7030a345-eade-4671-a4d0-2e292553146a}, !- Space Name
  Outdoors,                               !- Outside Boundary Condition
  ,                                       !- Outside Boundary Condition Object
  SunExposed,                             !- Sun Exposure
  WindExposed,                            !- Wind Exposure
  ,                                       !- View Factor to Ground
  ,                                       !- Number of Vertices
  0, 0, 2.4384,                           !- X,Y,Z Vertex 1 {m}
  7.66420675799603, 0, 2.4384,            !- X,Y,Z Vertex 2 {m}
  7.66420675799603, 0, 0,                 !- X,Y,Z Vertex 3 {m}
  0, 0, 0;                                !- X,Y,Z Vertex 4 {m}

OS:Surface,
  {57e5e536-6bf7-4002-a600-aa890a09d8c1}, !- Handle
  Surface 4,                              !- Name
  Wall,                                   !- Surface Type
  ,                                       !- Construction Name
  {7030a345-eade-4671-a4d0-2e292553146a}, !- Space Name
  Adiabatic,                              !- Outside Boundary Condition
  ,                                       !- Outside Boundary Condition Object
  NoSun,                                  !- Sun Exposure
  NoWind,                                 !- Wind Exposure
  ,                                       !- View Factor to Ground
  ,                                       !- Number of Vertices
  7.66420675799603, 0, 2.4384,            !- X,Y,Z Vertex 1 {m}
  7.66420675799603, -13.7944686069043, 2.4384, !- X,Y,Z Vertex 2 {m}
  7.66420675799603, -13.7944686069043, 0, !- X,Y,Z Vertex 3 {m}
  7.66420675799603, 0, 0;                 !- X,Y,Z Vertex 4 {m}

OS:Surface,
  {b1f76941-6675-43ca-942c-71bd7dfe5baf}, !- Handle
  Surface 5,                              !- Name
  Wall,                                   !- Surface Type
  ,                                       !- Construction Name
  {7030a345-eade-4671-a4d0-2e292553146a}, !- Space Name
  Adiabatic,                              !- Outside Boundary Condition
  ,                                       !- Outside Boundary Condition Object
  NoSun,                                  !- Sun Exposure
  NoWind,                                 !- Wind Exposure
  ,                                       !- View Factor to Ground
  ,                                       !- Number of Vertices
  7.66420675799603, -13.7944686069043, 2.4384, !- X,Y,Z Vertex 1 {m}
  0, -13.7944686069043, 2.4384,           !- X,Y,Z Vertex 2 {m}
  0, -13.7944686069043, 0,                !- X,Y,Z Vertex 3 {m}
  7.66420675799603, -13.7944686069043, 0; !- X,Y,Z Vertex 4 {m}

OS:Surface,
  {ba85f2f2-5f37-4c52-99eb-075aa4c3b579}, !- Handle
  Surface 6,                              !- Name
  RoofCeiling,                            !- Surface Type
  ,                                       !- Construction Name
  {7030a345-eade-4671-a4d0-2e292553146a}, !- Space Name
  Adiabatic,                              !- Outside Boundary Condition
  ,                                       !- Outside Boundary Condition Object
  NoSun,                                  !- Sun Exposure
  NoWind,                                 !- Wind Exposure
  ,                                       !- View Factor to Ground
  ,                                       !- Number of Vertices
  7.66420675799603, -13.7944686069043, 2.4384, !- X,Y,Z Vertex 1 {m}
  7.66420675799603, 0, 2.4384,            !- X,Y,Z Vertex 2 {m}
  0, 0, 2.4384,                           !- X,Y,Z Vertex 3 {m}
  0, -13.7944686069043, 2.4384;           !- X,Y,Z Vertex 4 {m}

OS:AdditionalProperties,
  {d5bc1b3d-4560-45fe-90fc-124c205f54bf}, !- Handle
  {7030a345-eade-4671-a4d0-2e292553146a}, !- Object Name
  Index,                                  !- Feature Name 1
  Integer,                                !- Feature Data Type 1
  1;                                      !- Feature Value 1

OS:AdditionalProperties,
  {b0d807c1-9d49-4067-b77b-e328e24eb937}, !- Handle
  {726c1e96-dab5-45a4-9256-876ca45d751a}, !- Object Name
  Index,                                  !- Feature Name 1
  Integer,                                !- Feature Data Type 1
  2;                                      !- Feature Value 1

OS:AdditionalProperties,
  {57f30db9-39c0-4a47-a745-02c2dbeb0867}, !- Handle
  {ba85f2f2-5f37-4c52-99eb-075aa4c3b579}, !- Object Name
  Index,                                  !- Feature Name 1
  Integer,                                !- Feature Data Type 1
  7;                                      !- Feature Value 1

OS:AdditionalProperties,
  {97cb7482-0448-4944-a1b7-6de556b1525d}, !- Handle
  {8539e83d-33cf-4fd3-9f21-d516739a4027}, !- Object Name
  Index,                                  !- Feature Name 1
  Integer,                                !- Feature Data Type 1
  6;                                      !- Feature Value 1

OS:AdditionalProperties,
  {faa83532-b521-45cb-99d2-3ffd392ef3e5}, !- Handle
  {ee67b186-58a1-4180-83d4-6968c172e4f4}, !- Object Name
  Index,                                  !- Feature Name 1
  Integer,                                !- Feature Data Type 1
  3;                                      !- Feature Value 1

OS:AdditionalProperties,
  {5dd41b0c-7b3d-460a-a852-d57a2d87e716}, !- Handle
  {57e5e536-6bf7-4002-a600-aa890a09d8c1}, !- Object Name
  Index,                                  !- Feature Name 1
  Integer,                                !- Feature Data Type 1
  4;                                      !- Feature Value 1

OS:AdditionalProperties,
  {302d1c27-7243-4156-a0de-fb7b321bea11}, !- Handle
  {b1f76941-6675-43ca-942c-71bd7dfe5baf}, !- Object Name
  Index,                                  !- Feature Name 1
  Integer,                                !- Feature Data Type 1
  5;                                      !- Feature Value 1

OS:SpaceType,
  {73546032-1e5e-4834-9299-c37124787e67}, !- Handle
  Space Type 1,                           !- Name
  ,                                       !- Default Construction Set Name
  ,                                       !- Default Schedule Set Name
  ,                                       !- Group Rendering Name
  ,                                       !- Design Specification Outdoor Air Object Name
  ,                                       !- Standards Template
  ,                                       !- Standards Building Type
  conditioned space;                      !- Standards Space Type

OS:SubSurface,
  {33a4ae04-5f93-41ef-b9e3-7a168f4e7601}, !- Handle
  Surface 5 - Door,                       !- Name
  Door,                                   !- Sub Surface Type
  ,                                       !- Construction Name
  {b1f76941-6675-43ca-942c-71bd7dfe5baf}, !- Surface Name
  ,                                       !- Outside Boundary Condition Object
  ,                                       !- View Factor to Ground
  ,                                       !- Frame and Divider Name
  ,                                       !- Multiplier
  ,                                       !- Number of Vertices
  0.1524, -13.794467712, 2.1336,          !- X,Y,Z Vertex 1 {m}
  0.1524, -13.794467712, 0,               !- X,Y,Z Vertex 2 {m}
  1.02325714285714, -13.794467712, 0,     !- X,Y,Z Vertex 3 {m}
  1.02325714285714, -13.794467712, 2.1336; !- X,Y,Z Vertex 4 {m}

OS:AdditionalProperties,
  {49161619-35c3-4743-8660-f0bb6df16ce9}, !- Handle
  {33a4ae04-5f93-41ef-b9e3-7a168f4e7601}, !- Object Name
  Index,                                  !- Feature Name 1
  Integer,                                !- Feature Data Type 1
  8;                                      !- Feature Value 1

OS:SubSurface,
  {4d8d084a-5126-41cb-9633-142c9ad70b10}, !- Handle
  Surface 3 - Window 1,                   !- Name
  FixedWindow,                            !- Sub Surface Type
  ,                                       !- Construction Name
  {ee67b186-58a1-4180-83d4-6968c172e4f4}, !- Surface Name
  ,                                       !- Outside Boundary Condition Object
  ,                                       !- View Factor to Ground
  ,                                       !- Frame and Divider Name
  ,                                       !- Multiplier
  ,                                       !- Number of Vertices
  6.6158877868945, 0, 2.1336,             !- X,Y,Z Vertex 1 {m}
  6.6158877868945, 0, 1.01754356002163,   !- X,Y,Z Vertex 2 {m}
  5.778636144, 0, 1.01754356002163,       !- X,Y,Z Vertex 3 {m}
  5.778636144, 0, 2.1336;                 !- X,Y,Z Vertex 4 {m}

OS:AdditionalProperties,
  {303e7a84-7d08-4a2e-b391-d39612184eb3}, !- Handle
  {4d8d084a-5126-41cb-9633-142c9ad70b10}, !- Object Name
  Index,                                  !- Feature Name 1
  Integer,                                !- Feature Data Type 1
  9;                                      !- Feature Value 1

OS:SubSurface,
  {6ca92d81-bbc9-4063-8850-efae7a864f81}, !- Handle
  Surface 3 - Window 2,                   !- Name
  FixedWindow,                            !- Sub Surface Type
  ,                                       !- Construction Name
  {ee67b186-58a1-4180-83d4-6968c172e4f4}, !- Surface Name
  ,                                       !- Outside Boundary Condition Object
  ,                                       !- View Factor to Ground
  ,                                       !- Frame and Divider Name
  ,                                       !- Multiplier
  ,                                       !- Number of Vertices
  5.717676144, 0, 2.1336,                 !- X,Y,Z Vertex 1 {m}
  5.717676144, 0, 1.01754356002163,       !- X,Y,Z Vertex 2 {m}
  4.8804245011055, 0, 1.01754356002163,   !- X,Y,Z Vertex 3 {m}
  4.8804245011055, 0, 2.1336;             !- X,Y,Z Vertex 4 {m}

OS:AdditionalProperties,
  {bd162dce-5b79-4b9d-b009-e1b23b408e0c}, !- Handle
  {6ca92d81-bbc9-4063-8850-efae7a864f81}, !- Object Name
  Index,                                  !- Feature Name 1
  Integer,                                !- Feature Data Type 1
  10;                                     !- Feature Value 1

OS:SubSurface,
  {0c579ec8-d9e2-4436-baa4-5619eb6eb64f}, !- Handle
  Surface 3 - Window 3,                   !- Name
  FixedWindow,                            !- Sub Surface Type
  ,                                       !- Construction Name
  {ee67b186-58a1-4180-83d4-6968c172e4f4}, !- Surface Name
  ,                                       !- Outside Boundary Condition Object
  ,                                       !- View Factor to Ground
  ,                                       !- Frame and Divider Name
  ,                                       !- Multiplier
  ,                                       !- Number of Vertices
  4.6998357388945, 0, 2.1336,             !- X,Y,Z Vertex 1 {m}
  4.6998357388945, 0, 1.01754356002163,   !- X,Y,Z Vertex 2 {m}
  3.862584096, 0, 1.01754356002163,       !- X,Y,Z Vertex 3 {m}
  3.862584096, 0, 2.1336;                 !- X,Y,Z Vertex 4 {m}

OS:AdditionalProperties,
  {c8884b41-52f4-43ff-8ffb-1db68313f234}, !- Handle
  {0c579ec8-d9e2-4436-baa4-5619eb6eb64f}, !- Object Name
  Index,                                  !- Feature Name 1
  Integer,                                !- Feature Data Type 1
  11;                                     !- Feature Value 1

OS:SubSurface,
  {f06a4a62-fa58-4c5d-881c-d3083ea4ffa3}, !- Handle
  Surface 3 - Window 4,                   !- Name
  FixedWindow,                            !- Sub Surface Type
  ,                                       !- Construction Name
  {ee67b186-58a1-4180-83d4-6968c172e4f4}, !- Surface Name
  ,                                       !- Outside Boundary Condition Object
  ,                                       !- View Factor to Ground
  ,                                       !- Frame and Divider Name
  ,                                       !- Multiplier
  ,                                       !- Number of Vertices
  3.801624096, 0, 2.1336,                 !- X,Y,Z Vertex 1 {m}
  3.801624096, 0, 1.01754356002163,       !- X,Y,Z Vertex 2 {m}
  2.9643724531055, 0, 1.01754356002163,   !- X,Y,Z Vertex 3 {m}
  2.9643724531055, 0, 2.1336;             !- X,Y,Z Vertex 4 {m}

OS:AdditionalProperties,
  {3f85aead-409d-48e6-91d2-a48b91f3f4cc}, !- Handle
  {f06a4a62-fa58-4c5d-881c-d3083ea4ffa3}, !- Object Name
  Index,                                  !- Feature Name 1
  Integer,                                !- Feature Data Type 1
  12;                                     !- Feature Value 1

OS:SubSurface,
  {8468c830-11ef-4b3c-95f4-592f2cf11b31}, !- Handle
  Surface 3 - Window 5,                   !- Name
  FixedWindow,                            !- Sub Surface Type
  ,                                       !- Construction Name
  {ee67b186-58a1-4180-83d4-6968c172e4f4}, !- Surface Name
  ,                                       !- Outside Boundary Condition Object
  ,                                       !- View Factor to Ground
  ,                                       !- Frame and Divider Name
  ,                                       !- Multiplier
  ,                                       !- Number of Vertices
  2.7837836908945, 0, 2.1336,             !- X,Y,Z Vertex 1 {m}
  2.7837836908945, 0, 1.01754356002163,   !- X,Y,Z Vertex 2 {m}
  1.946532048, 0, 1.01754356002163,       !- X,Y,Z Vertex 3 {m}
  1.946532048, 0, 2.1336;                 !- X,Y,Z Vertex 4 {m}

OS:AdditionalProperties,
  {e46c923d-067f-4fe7-869f-7eb5caa8bf12}, !- Handle
  {8468c830-11ef-4b3c-95f4-592f2cf11b31}, !- Object Name
  Index,                                  !- Feature Name 1
  Integer,                                !- Feature Data Type 1
  13;                                     !- Feature Value 1

OS:SubSurface,
  {135d3ee1-e259-4867-bd1d-0769409b7817}, !- Handle
  Surface 3 - Window 6,                   !- Name
  FixedWindow,                            !- Sub Surface Type
  ,                                       !- Construction Name
  {ee67b186-58a1-4180-83d4-6968c172e4f4}, !- Surface Name
  ,                                       !- Outside Boundary Condition Object
  ,                                       !- View Factor to Ground
  ,                                       !- Frame and Divider Name
  ,                                       !- Multiplier
  ,                                       !- Number of Vertices
  1.885572048, 0, 2.1336,                 !- X,Y,Z Vertex 1 {m}
  1.885572048, 0, 1.01754356002163,       !- X,Y,Z Vertex 2 {m}
  1.0483204051055, 0, 1.01754356002163,   !- X,Y,Z Vertex 3 {m}
  1.0483204051055, 0, 2.1336;             !- X,Y,Z Vertex 4 {m}

OS:AdditionalProperties,
  {0929e0b0-361a-441c-9db7-c78f40e3203d}, !- Handle
  {135d3ee1-e259-4867-bd1d-0769409b7817}, !- Object Name
  Index,                                  !- Feature Name 1
  Integer,                                !- Feature Data Type 1
  14;                                     !- Feature Value 1

