
OS:Version,
  {cde0d3af-8526-4bc5-bf7d-c54e193efe6e}, !- Handle
  3.7.0;                                  !- Version Identifier

OS:ThermalZone,
  {6a681cef-dd99-44d1-b92b-c0bc276e8736}, !- Handle
  conditioned space,                      !- Name
  ,                                       !- Multiplier
  ,                                       !- Ceiling Height {m}
  ,                                       !- Volume {m3}
  ,                                       !- Floor Area {m2}
  ,                                       !- Zone Inside Convection Algorithm
  ,                                       !- Zone Outside Convection Algorithm
  ,                                       !- Zone Conditioning Equipment List Name
  {312ccda4-da3f-49d1-965a-952cb960573f}, !- Zone Air Inlet Port List
  {bb7157b6-bb11-420a-ad00-f9051e9c0623}, !- Zone Air Exhaust Port List
  {78b29957-ec19-490b-b500-6d0694aaed23}, !- Zone Air Node Name
  {ea098f94-694d-4f22-8226-0bae4e47cc3c}, !- Zone Return Air Port List
  ,                                       !- Primary Daylighting Control Name
  ,                                       !- Fraction of Zone Controlled by Primary Daylighting Control
  ,                                       !- Secondary Daylighting Control Name
  ,                                       !- Fraction of Zone Controlled by Secondary Daylighting Control
  ,                                       !- Illuminance Map Name
  ,                                       !- Group Rendering Name
  ,                                       !- Thermostat Name
  No;                                     !- Use Ideal Air Loads

OS:Node,
  {89216e84-0e9e-40b8-a7a5-34928b053b03}, !- Handle
  Node 1,                                 !- Name
  {78b29957-ec19-490b-b500-6d0694aaed23}, !- Inlet Port
  ;                                       !- Outlet Port

OS:Connection,
  {78b29957-ec19-490b-b500-6d0694aaed23}, !- Handle
  {6a681cef-dd99-44d1-b92b-c0bc276e8736}, !- Source Object
  11,                                     !- Outlet Port
  {89216e84-0e9e-40b8-a7a5-34928b053b03}, !- Target Object
  2;                                      !- Inlet Port

OS:PortList,
  {312ccda4-da3f-49d1-965a-952cb960573f}, !- Handle
  {6a681cef-dd99-44d1-b92b-c0bc276e8736}; !- HVAC Component

OS:PortList,
  {bb7157b6-bb11-420a-ad00-f9051e9c0623}, !- Handle
  {6a681cef-dd99-44d1-b92b-c0bc276e8736}; !- HVAC Component

OS:PortList,
  {ea098f94-694d-4f22-8226-0bae4e47cc3c}, !- Handle
  {6a681cef-dd99-44d1-b92b-c0bc276e8736}; !- HVAC Component

OS:Sizing:Zone,
  {2ddebee9-1dbf-4555-a4fd-70613371032e}, !- Handle
  {6a681cef-dd99-44d1-b92b-c0bc276e8736}, !- Zone or ZoneList Name
  SupplyAirTemperature,                   !- Zone Cooling Design Supply Air Temperature Input Method
  14,                                     !- Zone Cooling Design Supply Air Temperature {C}
  11.11,                                  !- Zone Cooling Design Supply Air Temperature Difference {deltaC}
  SupplyAirTemperature,                   !- Zone Heating Design Supply Air Temperature Input Method
  40,                                     !- Zone Heating Design Supply Air Temperature {C}
  11.11,                                  !- Zone Heating Design Supply Air Temperature Difference {deltaC}
  0.0085,                                 !- Zone Cooling Design Supply Air Humidity Ratio {kg-H2O/kg-air}
  0.008,                                  !- Zone Heating Design Supply Air Humidity Ratio {kg-H2O/kg-air}
  ,                                       !- Zone Heating Sizing Factor
  ,                                       !- Zone Cooling Sizing Factor
  DesignDay,                              !- Cooling Design Air Flow Method
  ,                                       !- Cooling Design Air Flow Rate {m3/s}
  ,                                       !- Cooling Minimum Air Flow per Zone Floor Area {m3/s-m2}
  ,                                       !- Cooling Minimum Air Flow {m3/s}
  ,                                       !- Cooling Minimum Air Flow Fraction
  DesignDay,                              !- Heating Design Air Flow Method
  ,                                       !- Heating Design Air Flow Rate {m3/s}
  ,                                       !- Heating Maximum Air Flow per Zone Floor Area {m3/s-m2}
  ,                                       !- Heating Maximum Air Flow {m3/s}
  ,                                       !- Heating Maximum Air Flow Fraction
  No,                                     !- Account for Dedicated Outdoor Air System
  NeutralSupplyAir,                       !- Dedicated Outdoor Air System Control Strategy
  autosize,                               !- Dedicated Outdoor Air Low Setpoint Temperature for Design {C}
  autosize,                               !- Dedicated Outdoor Air High Setpoint Temperature for Design {C}
  Sensible Load Only No Latent Load,      !- Zone Load Sizing Method
  HumidityRatioDifference,                !- Zone Latent Cooling Design Supply Air Humidity Ratio Input Method
  ,                                       !- Zone Dehumidification Design Supply Air Humidity Ratio {kgWater/kgDryAir}
  0.005,                                  !- Zone Cooling Design Supply Air Humidity Ratio Difference {kgWater/kgDryAir}
  HumidityRatioDifference,                !- Zone Latent Heating Design Supply Air Humidity Ratio Input Method
  ,                                       !- Zone Humidification Design Supply Air Humidity Ratio {kgWater/kgDryAir}
  0.005;                                  !- Zone Humidification Design Supply Air Humidity Ratio Difference {kgWater/kgDryAir}

OS:ZoneHVAC:EquipmentList,
  {48022797-9e0c-45cf-8868-95f5d1d7929f}, !- Handle
  Zone HVAC Equipment List 1,             !- Name
  {6a681cef-dd99-44d1-b92b-c0bc276e8736}; !- Thermal Zone

OS:Space,
  {3f5ae4dc-3e97-4981-8000-a38cb0786830}, !- Handle
  conditioned space 1,                    !- Name
  {9b635cc3-9631-4cc9-b729-b37d525b66b6}, !- Space Type Name
  ,                                       !- Default Construction Set Name
  ,                                       !- Default Schedule Set Name
  ,                                       !- Direction of Relative North {deg}
  ,                                       !- X Origin {m}
  ,                                       !- Y Origin {m}
  ,                                       !- Z Origin {m}
  ,                                       !- Building Story Name
  {6a681cef-dd99-44d1-b92b-c0bc276e8736}; !- Thermal Zone Name

OS:Surface,
  {443a9ae6-2e23-45ce-b98c-0663d5dfcb43}, !- Handle
  Surface 1,                              !- Name
  Floor,                                  !- Surface Type
  ,                                       !- Construction Name
  {3f5ae4dc-3e97-4981-8000-a38cb0786830}, !- Space Name
  Surface,                                !- Outside Boundary Condition
  {779082ca-f3af-4296-bb00-f9f02c40ec6b}, !- Outside Boundary Condition Object
  NoSun,                                  !- Sun Exposure
  NoWind,                                 !- Wind Exposure
  ,                                       !- View Factor to Ground
  ,                                       !- Number of Vertices
  5.3731805262269, 0, 0.23495,            !- X,Y,Z Vertex 1 {m}
  5.3731805262269, -9.67095127110673, 0.23495, !- X,Y,Z Vertex 2 {m}
  0, -9.67095127110673, 0.23495,          !- X,Y,Z Vertex 3 {m}
  0, 0, 0.23495;                          !- X,Y,Z Vertex 4 {m}

OS:Surface,
  {de2f12ff-fc66-468a-b49b-897e8c22a7a9}, !- Handle
  Surface 2,                              !- Name
  Wall,                                   !- Surface Type
  ,                                       !- Construction Name
  {3f5ae4dc-3e97-4981-8000-a38cb0786830}, !- Space Name
  Adiabatic,                              !- Outside Boundary Condition
  ,                                       !- Outside Boundary Condition Object
  NoSun,                                  !- Sun Exposure
  NoWind,                                 !- Wind Exposure
  ,                                       !- View Factor to Ground
  ,                                       !- Number of Vertices
  0, -9.67095127110673, 2.67335,          !- X,Y,Z Vertex 1 {m}
  0, 0, 2.67335,                          !- X,Y,Z Vertex 2 {m}
  0, 0, 0.23495,                          !- X,Y,Z Vertex 3 {m}
  0, -9.67095127110673, 0.23495;          !- X,Y,Z Vertex 4 {m}

OS:Surface,
  {d46a5274-0887-48fb-990c-0a51488052cb}, !- Handle
  Surface 3,                              !- Name
  Wall,                                   !- Surface Type
  ,                                       !- Construction Name
  {3f5ae4dc-3e97-4981-8000-a38cb0786830}, !- Space Name
  Outdoors,                               !- Outside Boundary Condition
  ,                                       !- Outside Boundary Condition Object
  SunExposed,                             !- Sun Exposure
  WindExposed,                            !- Wind Exposure
  ,                                       !- View Factor to Ground
  ,                                       !- Number of Vertices
  0, 0, 2.67335,                          !- X,Y,Z Vertex 1 {m}
  5.3731805262269, 0, 2.67335,            !- X,Y,Z Vertex 2 {m}
  5.3731805262269, 0, 0.23495,            !- X,Y,Z Vertex 3 {m}
  0, 0, 0.23495;                          !- X,Y,Z Vertex 4 {m}

OS:Surface,
  {6238252a-4fd0-4ef4-b736-290cbb7873fd}, !- Handle
  Surface 4,                              !- Name
  Wall,                                   !- Surface Type
  ,                                       !- Construction Name
  {3f5ae4dc-3e97-4981-8000-a38cb0786830}, !- Space Name
  Adiabatic,                              !- Outside Boundary Condition
  ,                                       !- Outside Boundary Condition Object
  NoSun,                                  !- Sun Exposure
  NoWind,                                 !- Wind Exposure
  ,                                       !- View Factor to Ground
  ,                                       !- Number of Vertices
  5.3731805262269, 0, 2.67335,            !- X,Y,Z Vertex 1 {m}
  5.3731805262269, -9.67095127110673, 2.67335, !- X,Y,Z Vertex 2 {m}
  5.3731805262269, -9.67095127110673, 0.23495, !- X,Y,Z Vertex 3 {m}
  5.3731805262269, 0, 0.23495;            !- X,Y,Z Vertex 4 {m}

OS:Surface,
  {26e7fe4c-c48f-4f05-838d-983bfe2d0408}, !- Handle
  Surface 5,                              !- Name
  Wall,                                   !- Surface Type
  ,                                       !- Construction Name
  {3f5ae4dc-3e97-4981-8000-a38cb0786830}, !- Space Name
  Outdoors,                               !- Outside Boundary Condition
  ,                                       !- Outside Boundary Condition Object
  SunExposed,                             !- Sun Exposure
  WindExposed,                            !- Wind Exposure
  ,                                       !- View Factor to Ground
  ,                                       !- Number of Vertices
  5.3731805262269, -9.67095127110673, 0.23495, !- X,Y,Z Vertex 1 {m}
  5.3731805262269, -9.67095127110673, 2.67335, !- X,Y,Z Vertex 2 {m}
  1.04865714285714, -9.67095127110673, 2.67335, !- X,Y,Z Vertex 3 {m}
  1.04865714285714, -9.67095127110673, 0.23495; !- X,Y,Z Vertex 4 {m}

OS:Surface,
  {e12644db-07bb-42cd-abfb-b7c55c658d8c}, !- Handle
  Surface 6,                              !- Name
  RoofCeiling,                            !- Surface Type
  ,                                       !- Construction Name
  {3f5ae4dc-3e97-4981-8000-a38cb0786830}, !- Space Name
  Surface,                                !- Outside Boundary Condition
  {21df650c-7a30-48b1-994c-f722943dfce2}, !- Outside Boundary Condition Object
  NoSun,                                  !- Sun Exposure
  NoWind,                                 !- Wind Exposure
  ,                                       !- View Factor to Ground
  ,                                       !- Number of Vertices
  5.3731805262269, -9.67095127110673, 2.67335, !- X,Y,Z Vertex 1 {m}
  5.3731805262269, 0, 2.67335,            !- X,Y,Z Vertex 2 {m}
  0, 0, 2.67335,                          !- X,Y,Z Vertex 3 {m}
  0, -9.67095127110673, 2.67335;          !- X,Y,Z Vertex 4 {m}

OS:AdditionalProperties,
  {bae990ce-4878-4a48-9fbd-a2fc7a73215a}, !- Handle
  {3f5ae4dc-3e97-4981-8000-a38cb0786830}, !- Object Name
  Index,                                  !- Feature Name 1
  Integer,                                !- Feature Data Type 1
  1;                                      !- Feature Value 1

OS:AdditionalProperties,
  {a5af71d8-263f-4bca-86af-697ed732c01a}, !- Handle
  {443a9ae6-2e23-45ce-b98c-0663d5dfcb43}, !- Object Name
  Index,                                  !- Feature Name 1
  Integer,                                !- Feature Data Type 1
  2;                                      !- Feature Value 1

OS:AdditionalProperties,
  {59992ed0-9acd-44f9-af86-3e09bdc46c3a}, !- Handle
  {de2f12ff-fc66-468a-b49b-897e8c22a7a9}, !- Object Name
  Index,                                  !- Feature Name 1
  Integer,                                !- Feature Data Type 1
  6;                                      !- Feature Value 1

OS:AdditionalProperties,
  {92e388f3-8a20-4ae2-a7cd-d24ce6662b21}, !- Handle
  {6238252a-4fd0-4ef4-b736-290cbb7873fd}, !- Object Name
  Index,                                  !- Feature Name 1
  Integer,                                !- Feature Data Type 1
  4;                                      !- Feature Value 1

OS:AdditionalProperties,
  {81e61deb-baf8-4c6c-835c-daa21dfd5fa8}, !- Handle
  {d46a5274-0887-48fb-990c-0a51488052cb}, !- Object Name
  Index,                                  !- Feature Name 1
  Integer,                                !- Feature Data Type 1
  3;                                      !- Feature Value 1

OS:AdditionalProperties,
  {af220aee-9059-41c9-a7f8-341554071562}, !- Handle
  {26e7fe4c-c48f-4f05-838d-983bfe2d0408}, !- Object Name
  Index,                                  !- Feature Name 1
  Integer,                                !- Feature Data Type 1
  5;                                      !- Feature Value 1

OS:AdditionalProperties,
  {dc14efcc-e1dc-4372-891a-a105cd61fd0a}, !- Handle
  {e12644db-07bb-42cd-abfb-b7c55c658d8c}, !- Object Name
  Index,                                  !- Feature Name 1
  Integer,                                !- Feature Data Type 1
  7;                                      !- Feature Value 1

OS:SpaceType,
  {9b635cc3-9631-4cc9-b729-b37d525b66b6}, !- Handle
  Space Type 1,                           !- Name
  ,                                       !- Default Construction Set Name
  ,                                       !- Default Schedule Set Name
  ,                                       !- Group Rendering Name
  ,                                       !- Design Specification Outdoor Air Object Name
  ,                                       !- Standards Template
  ,                                       !- Standards Building Type
  conditioned space;                      !- Standards Space Type

OS:Space,
  {6703c609-2684-4bf7-b9bf-077f38eb9e0c}, !- Handle
  conditioned space|story 2,              !- Name
  {9b635cc3-9631-4cc9-b729-b37d525b66b6}, !- Space Type Name
  ,                                       !- Default Construction Set Name
  ,                                       !- Default Schedule Set Name
  -0,                                     !- Direction of Relative North {deg}
  0,                                      !- X Origin {m}
  0,                                      !- Y Origin {m}
  2.4384,                                 !- Z Origin {m}
  ,                                       !- Building Story Name
  {6a681cef-dd99-44d1-b92b-c0bc276e8736}; !- Thermal Zone Name

OS:AdditionalProperties,
  {8ebe9bc3-90d4-4f1e-91b3-8eaf9030eaf3}, !- Handle
  {6703c609-2684-4bf7-b9bf-077f38eb9e0c}, !- Object Name
  Index,                                  !- Feature Name 1
  Integer,                                !- Feature Data Type 1
  8;                                      !- Feature Value 1

OS:Surface,
  {21df650c-7a30-48b1-994c-f722943dfce2}, !- Handle
  Surface 7,                              !- Name
  Floor,                                  !- Surface Type
  ,                                       !- Construction Name
  {6703c609-2684-4bf7-b9bf-077f38eb9e0c}, !- Space Name
  Surface,                                !- Outside Boundary Condition
  {e12644db-07bb-42cd-abfb-b7c55c658d8c}, !- Outside Boundary Condition Object
  NoSun,                                  !- Sun Exposure
  NoWind,                                 !- Wind Exposure
  ,                                       !- View Factor to Ground
  ,                                       !- Number of Vertices
  5.3731805262269, 0, 0.23495,            !- X,Y,Z Vertex 1 {m}
  5.3731805262269, -9.67095127110673, 0.23495, !- X,Y,Z Vertex 2 {m}
  0, -9.67095127110673, 0.23495,          !- X,Y,Z Vertex 3 {m}
  0, 0, 0.23495;                          !- X,Y,Z Vertex 4 {m}

OS:AdditionalProperties,
  {52236358-24c4-453a-bf73-d69bae98f3dc}, !- Handle
  {21df650c-7a30-48b1-994c-f722943dfce2}, !- Object Name
  Index,                                  !- Feature Name 1
  Integer,                                !- Feature Data Type 1
  9;                                      !- Feature Value 1

OS:Surface,
  {af07aba4-23eb-40ab-a09e-84aaacc4330f}, !- Handle
  Surface 8,                              !- Name
  RoofCeiling,                            !- Surface Type
  ,                                       !- Construction Name
  {6703c609-2684-4bf7-b9bf-077f38eb9e0c}, !- Space Name
  Surface,                                !- Outside Boundary Condition
  {9ac58133-9f8b-4eca-8cab-368c38f842a4}, !- Outside Boundary Condition Object
  NoSun,                                  !- Sun Exposure
  NoWind,                                 !- Wind Exposure
  ,                                       !- View Factor to Ground
  ,                                       !- Number of Vertices
  5.3731805262269, -9.67095127110673, 2.67335, !- X,Y,Z Vertex 1 {m}
  5.3731805262269, 0, 2.67335,            !- X,Y,Z Vertex 2 {m}
  0, 0, 2.67335,                          !- X,Y,Z Vertex 3 {m}
  0, -9.67095127110673, 2.67335;          !- X,Y,Z Vertex 4 {m}

OS:AdditionalProperties,
  {9c9c8317-60bb-40b8-8e0e-2f4f6b59e4af}, !- Handle
  {af07aba4-23eb-40ab-a09e-84aaacc4330f}, !- Object Name
  Index,                                  !- Feature Name 1
  Integer,                                !- Feature Data Type 1
  14;                                     !- Feature Value 1

OS:Surface,
  {b62eb7c9-b877-49d1-bd40-4d6739a31680}, !- Handle
  Surface 9,                              !- Name
  Wall,                                   !- Surface Type
  ,                                       !- Construction Name
  {6703c609-2684-4bf7-b9bf-077f38eb9e0c}, !- Space Name
  Adiabatic,                              !- Outside Boundary Condition
  ,                                       !- Outside Boundary Condition Object
  NoSun,                                  !- Sun Exposure
  NoWind,                                 !- Wind Exposure
  ,                                       !- View Factor to Ground
  ,                                       !- Number of Vertices
  0, -9.67095127110673, 2.67335,          !- X,Y,Z Vertex 1 {m}
  0, 0, 2.67335,                          !- X,Y,Z Vertex 2 {m}
  0, 0, 0.23495,                          !- X,Y,Z Vertex 3 {m}
  0, -9.67095127110673, 0.23495;          !- X,Y,Z Vertex 4 {m}

OS:AdditionalProperties,
  {1709cf8f-9358-400b-b6d0-b051680077fb}, !- Handle
  {b62eb7c9-b877-49d1-bd40-4d6739a31680}, !- Object Name
  Index,                                  !- Feature Name 1
  Integer,                                !- Feature Data Type 1
  13;                                     !- Feature Value 1

OS:Surface,
  {33ec6da3-a5e2-4d03-a38a-23fc8929130d}, !- Handle
  Surface 10,                             !- Name
  Wall,                                   !- Surface Type
  ,                                       !- Construction Name
  {6703c609-2684-4bf7-b9bf-077f38eb9e0c}, !- Space Name
  Adiabatic,                              !- Outside Boundary Condition
  ,                                       !- Outside Boundary Condition Object
  NoSun,                                  !- Sun Exposure
  NoWind,                                 !- Wind Exposure
  ,                                       !- View Factor to Ground
  ,                                       !- Number of Vertices
  5.3731805262269, 0, 2.67335,            !- X,Y,Z Vertex 1 {m}
  5.3731805262269, -9.67095127110673, 2.67335, !- X,Y,Z Vertex 2 {m}
  5.3731805262269, -9.67095127110673, 0.23495, !- X,Y,Z Vertex 3 {m}
  5.3731805262269, 0, 0.23495;            !- X,Y,Z Vertex 4 {m}

OS:AdditionalProperties,
  {30a0186b-abe1-43cd-b6b9-11f402c10158}, !- Handle
  {33ec6da3-a5e2-4d03-a38a-23fc8929130d}, !- Object Name
  Index,                                  !- Feature Name 1
  Integer,                                !- Feature Data Type 1
  11;                                     !- Feature Value 1

OS:Surface,
  {29f26377-9ee8-41bb-8058-a208bafcd6be}, !- Handle
  Surface 11,                             !- Name
  Wall,                                   !- Surface Type
  ,                                       !- Construction Name
  {6703c609-2684-4bf7-b9bf-077f38eb9e0c}, !- Space Name
  Outdoors,                               !- Outside Boundary Condition
  ,                                       !- Outside Boundary Condition Object
  SunExposed,                             !- Sun Exposure
  WindExposed,                            !- Wind Exposure
  ,                                       !- View Factor to Ground
  ,                                       !- Number of Vertices
  0, 0, 2.67335,                          !- X,Y,Z Vertex 1 {m}
  5.3731805262269, 0, 2.67335,            !- X,Y,Z Vertex 2 {m}
  5.3731805262269, 0, 0.23495,            !- X,Y,Z Vertex 3 {m}
  0, 0, 0.23495;                          !- X,Y,Z Vertex 4 {m}

OS:AdditionalProperties,
  {125d1ec7-af82-4672-8c58-cddf49cfacd6}, !- Handle
  {29f26377-9ee8-41bb-8058-a208bafcd6be}, !- Object Name
  Index,                                  !- Feature Name 1
  Integer,                                !- Feature Data Type 1
  10;                                     !- Feature Value 1

OS:Surface,
  {d7916a3a-8f85-4cc7-a12e-419b01a903b8}, !- Handle
  Surface 12,                             !- Name
  Wall,                                   !- Surface Type
  ,                                       !- Construction Name
  {6703c609-2684-4bf7-b9bf-077f38eb9e0c}, !- Space Name
  Outdoors,                               !- Outside Boundary Condition
  ,                                       !- Outside Boundary Condition Object
  SunExposed,                             !- Sun Exposure
  WindExposed,                            !- Wind Exposure
  ,                                       !- View Factor to Ground
  ,                                       !- Number of Vertices
  5.3731805262269, -9.67095127110673, 2.67335, !- X,Y,Z Vertex 1 {m}
  0, -9.67095127110673, 2.67335,          !- X,Y,Z Vertex 2 {m}
  0, -9.67095127110673, 0.23495,          !- X,Y,Z Vertex 3 {m}
  5.3731805262269, -9.67095127110673, 0.23495; !- X,Y,Z Vertex 4 {m}

OS:AdditionalProperties,
  {50a2db6f-a4a6-43fd-9b9a-24566a77e6b6}, !- Handle
  {d7916a3a-8f85-4cc7-a12e-419b01a903b8}, !- Object Name
  Index,                                  !- Feature Name 1
  Integer,                                !- Feature Data Type 1
  12;                                     !- Feature Value 1

OS:Space,
  {53c3122f-6f3f-42a9-bfab-544ed2ba985f}, !- Handle
  basement - conditioned 1,               !- Name
  {b1ae90fe-c642-4fe9-a403-e79c0ef79431}, !- Space Type Name
  ,                                       !- Default Construction Set Name
  ,                                       !- Default Schedule Set Name
  -0,                                     !- Direction of Relative North {deg}
  0,                                      !- X Origin {m}
  0,                                      !- Y Origin {m}
  0,                                      !- Z Origin {m}
  ,                                       !- Building Story Name
  {d3da4c48-8e6c-488c-bd89-c072c9a318e6}; !- Thermal Zone Name

OS:Surface,
  {1f4467b6-fd19-4e21-ad8e-4fa4a2853e23}, !- Handle
  Surface 18,                             !- Name
  Floor,                                  !- Surface Type
  ,                                       !- Construction Name
  {53c3122f-6f3f-42a9-bfab-544ed2ba985f}, !- Space Name
  Foundation,                             !- Outside Boundary Condition
  ,                                       !- Outside Boundary Condition Object
  NoSun,                                  !- Sun Exposure
  NoWind,                                 !- Wind Exposure
  ,                                       !- View Factor to Ground
  ,                                       !- Number of Vertices
  0, -9.67095127110673, -2.20345,         !- X,Y,Z Vertex 1 {m}
  0, 0, -2.20345,                         !- X,Y,Z Vertex 2 {m}
  5.3731805262269, 0, -2.20345,           !- X,Y,Z Vertex 3 {m}
  5.3731805262269, -9.67095127110673, -2.20345; !- X,Y,Z Vertex 4 {m}

OS:Surface,
  {d7f6e865-401e-4970-9533-f9943161f1a1}, !- Handle
  Surface 19,                             !- Name
  Wall,                                   !- Surface Type
  ,                                       !- Construction Name
  {53c3122f-6f3f-42a9-bfab-544ed2ba985f}, !- Space Name
  Adiabatic,                              !- Outside Boundary Condition
  ,                                       !- Outside Boundary Condition Object
  NoSun,                                  !- Sun Exposure
  NoWind,                                 !- Wind Exposure
  ,                                       !- View Factor to Ground
  ,                                       !- Number of Vertices
  0, -9.67095127110673, 0.23495,          !- X,Y,Z Vertex 1 {m}
  0, 0, 0.23495,                          !- X,Y,Z Vertex 2 {m}
  0, 0, -2.20345,                         !- X,Y,Z Vertex 3 {m}
  0, -9.67095127110673, -2.20345;         !- X,Y,Z Vertex 4 {m}

OS:Surface,
  {407f1933-92fb-42da-b8a5-682a85ea2ec4}, !- Handle
  Surface 20,                             !- Name
  Wall,                                   !- Surface Type
  ,                                       !- Construction Name
  {53c3122f-6f3f-42a9-bfab-544ed2ba985f}, !- Space Name
  Foundation,                             !- Outside Boundary Condition
  ,                                       !- Outside Boundary Condition Object
  NoSun,                                  !- Sun Exposure
  NoWind,                                 !- Wind Exposure
  ,                                       !- View Factor to Ground
  ,                                       !- Number of Vertices
  0, 0, 0.23495,                          !- X,Y,Z Vertex 1 {m}
  5.3731805262269, 0, 0.23495,            !- X,Y,Z Vertex 2 {m}
  5.3731805262269, 0, -2.20345,           !- X,Y,Z Vertex 3 {m}
  0, 0, -2.20345;                         !- X,Y,Z Vertex 4 {m}

OS:Surface,
  {c1ceff24-f345-4d9e-82dc-5a8c0c55bf86}, !- Handle
  Surface 21,                             !- Name
  Wall,                                   !- Surface Type
  ,                                       !- Construction Name
  {53c3122f-6f3f-42a9-bfab-544ed2ba985f}, !- Space Name
  Adiabatic,                              !- Outside Boundary Condition
  ,                                       !- Outside Boundary Condition Object
  NoSun,                                  !- Sun Exposure
  NoWind,                                 !- Wind Exposure
  ,                                       !- View Factor to Ground
  ,                                       !- Number of Vertices
  5.3731805262269, 0, 0.23495,            !- X,Y,Z Vertex 1 {m}
  5.3731805262269, -9.67095127110673, 0.23495, !- X,Y,Z Vertex 2 {m}
  5.3731805262269, -9.67095127110673, -2.20345, !- X,Y,Z Vertex 3 {m}
  5.3731805262269, 0, -2.20345;           !- X,Y,Z Vertex 4 {m}

OS:Surface,
  {a05902f5-bec4-4b50-b35b-2becb792572c}, !- Handle
  Surface 22,                             !- Name
  Wall,                                   !- Surface Type
  ,                                       !- Construction Name
  {53c3122f-6f3f-42a9-bfab-544ed2ba985f}, !- Space Name
  Foundation,                             !- Outside Boundary Condition
  ,                                       !- Outside Boundary Condition Object
  NoSun,                                  !- Sun Exposure
  NoWind,                                 !- Wind Exposure
  ,                                       !- View Factor to Ground
  ,                                       !- Number of Vertices
  5.3731805262269, -9.67095127110673, 0.23495, !- X,Y,Z Vertex 1 {m}
  0, -9.67095127110673, 0.23495,          !- X,Y,Z Vertex 2 {m}
  0, -9.67095127110673, -2.20345,         !- X,Y,Z Vertex 3 {m}
  5.3731805262269, -9.67095127110673, -2.20345; !- X,Y,Z Vertex 4 {m}

OS:AdditionalProperties,
  {3cc77a82-5230-4481-8d62-eab58524d93a}, !- Handle
  {53c3122f-6f3f-42a9-bfab-544ed2ba985f}, !- Object Name
  Index,                                  !- Feature Name 1
  Integer,                                !- Feature Data Type 1
  21;                                     !- Feature Value 1

OS:AdditionalProperties,
  {571772fa-7ff5-488a-96f5-25070051fc34}, !- Handle
  {1f4467b6-fd19-4e21-ad8e-4fa4a2853e23}, !- Object Name
  Index,                                  !- Feature Name 1
  Integer,                                !- Feature Data Type 1
  22;                                     !- Feature Value 1

OS:AdditionalProperties,
  {26534c96-89d1-4082-881d-766d8c8e2996}, !- Handle
  {d7f6e865-401e-4970-9533-f9943161f1a1}, !- Object Name